xflr5 v6.59

 Calculated polar for: NACA 6415

 1 1 Reynolds number fixed          Mach number fixed         

 xtrf =   1.000 (top)        1.000 (bottom)
 Mach =   0.000     Re =     0.250 e 6     Ncrit =   9.000

  alpha     CL        CD       CDp       Cm    Top Xtr Bot Xtr   Cpmin    Chinge    XCp    
 ------- -------- --------- --------- -------- ------- ------- -------- --------- ---------
 -10.000  -0.1128   0.10553   0.10215  -0.0945  0.9672  0.0591  -1.6863   0.0000   0.0000   0.0000  -0.6584
  -9.500  -0.0822   0.09402   0.09063  -0.1025  0.9644  0.0605  -1.6748   0.0000   0.0000   0.0000  -1.0914
  -9.000  -0.0463   0.08864   0.08525  -0.1047  0.9548  0.0622  -1.5095   0.0000   0.0000   0.0000  -2.1697
  -8.000  -0.1653   0.03250   0.02779  -0.1511  0.9050  0.0493  -3.5355   0.0000   0.0000   0.0000  -0.7083
  -7.500  -0.1260   0.02873   0.02360  -0.1514  0.8922  0.0515  -3.3672   0.0000   0.0000   0.0000  -1.0064
  -7.000  -0.0734   0.02590   0.02032  -0.1526  0.8816  0.0558  -3.1402   0.0000   0.0000   0.0000  -1.9142
  -6.500  -0.0247   0.02334   0.01713  -0.1523  0.8690  0.0594  -2.9502   0.0000   0.0000   0.0000  -6.1596
  -6.000   0.0277   0.02019   0.01366  -0.1527  0.8564  0.0643  -2.7248   0.0000   0.0000   0.0000   5.9497
  -5.500   0.0814   0.01882   0.01200  -0.1523  0.8418  0.0695  -2.4705   0.0000   0.0000   0.0000   2.1813
  -5.000   0.1388   0.01705   0.00990  -0.1526  0.8281  0.0762  -2.2179   0.0000   0.0000   0.0000   1.3810
  -4.500   0.1922   0.01651   0.00926  -0.1520  0.8115  0.0849  -1.9996   0.0000   0.0000   0.0000   1.0606
  -4.000   0.2510   0.01532   0.00790  -0.1524  0.7967  0.0943  -1.7904   0.0000   0.0000   0.0000   0.8704
  -3.500   0.3035   0.01460   0.00706  -0.1515  0.7780  0.1057  -1.5904   0.0000   0.0000   0.0000   0.7585
  -3.000   0.3587   0.01419   0.00653  -0.1511  0.7592  0.1208  -1.3788   0.0000   0.0000   0.0000   0.6777
  -2.500   0.4154   0.01368   0.00589  -0.1510  0.7399  0.1390  -1.1778   0.0000   0.0000   0.0000   0.6179
  -2.000   0.4681   0.01328   0.00554  -0.1504  0.7193  0.1628  -1.0154   0.0000   0.0000   0.0000   0.5737
  -1.500   0.5218   0.01307   0.00531  -0.1498  0.6992  0.1907  -0.9728   0.0000   0.0000   0.0000   0.5383
  -1.000   0.5765   0.01292   0.00512  -0.1495  0.6794  0.2271  -1.0160   0.0000   0.0000   0.0000   0.5094
  -0.500   0.6295   0.01280   0.00500  -0.1489  0.6590  0.2715  -1.0593   0.0000   0.0000   0.0000   0.4855
   0.000   0.6819   0.01269   0.00505  -0.1484  0.6410  0.3330  -1.1017   0.0000   0.0000   0.0000   0.4656
   0.500   0.7340   0.01221   0.00517  -0.1480  0.6243  0.5517  -1.1458   0.0000   0.0000   0.0000   0.4488
   1.000   0.7878   0.01151   0.00534  -0.1467  0.6087  1.0000  -1.1937   0.0000   0.0000   0.0000   0.4326
   1.500   0.8427   0.01197   0.00548  -0.1466  0.5943  1.0000  -1.2416   0.0000   0.0000   0.0000   0.4196
   2.000   0.8938   0.01230   0.00572  -0.1458  0.5823  1.0000  -1.2884   0.0000   0.0000   0.0000   0.4080
   2.500   0.9478   0.01274   0.00595  -0.1455  0.5698  1.0000  -1.3402   0.0000   0.0000   0.0000   0.3978
   3.000   1.0001   0.01320   0.00634  -0.1451  0.5592  1.0000  -1.3903   0.0000   0.0000   0.0000   0.3886
   3.500   1.0517   0.01361   0.00668  -0.1444  0.5491  1.0000  -1.4436   0.0000   0.0000   0.0000   0.3802
   4.000   1.1072   0.01421   0.00709  -0.1446  0.5381  1.0000  -1.5011   0.0000   0.0000   0.0000   0.3727
   4.500   1.1568   0.01468   0.00764  -0.1437  0.5298  1.0000  -1.5559   0.0000   0.0000   0.0000   0.3657
   5.000   1.2070   0.01513   0.00809  -0.1429  0.5203  1.0000  -1.6144   0.0000   0.0000   0.0000   0.3591
   5.500   1.2609   0.01575   0.00857  -0.1429  0.5106  1.0000  -1.6786   0.0000   0.0000   0.0000   0.3533
   6.000   1.3095   0.01637   0.00928  -0.1419  0.5022  1.0000  -1.7405   0.0000   0.0000   0.0000   0.3476
   6.500   1.3564   0.01686   0.00986  -0.1406  0.4927  1.0000  -1.8067   0.0000   0.0000   0.0000   0.3421
   7.000   1.4074   0.01745   0.01040  -0.1401  0.4834  1.0000  -1.8811   0.0000   0.0000   0.0000   0.3372
   7.500   1.4541   0.01821   0.01125  -0.1389  0.4742  1.0000  -1.9583   0.0000   0.0000   0.0000   0.3324
   8.000   1.4960   0.01874   0.01188  -0.1367  0.4643  1.0000  -2.0686   0.0000   0.0000   0.0000   0.3275
   8.500   1.5444   0.01936   0.01250  -0.1358  0.4538  1.0000  -2.2385   0.0000   0.0000   0.0000   0.3231
   9.000   1.5812   0.02009   0.01339  -0.1328  0.4435  1.0000  -2.4114   0.0000   0.0000   0.0000   0.3184
   9.500   1.6122   0.02054   0.01391  -0.1286  0.4313  1.0000  -2.5845   0.0000   0.0000   0.0000   0.3133
  10.000   1.6410   0.02123   0.01463  -0.1243  0.4175  1.0000  -2.7711   0.0000   0.0000   0.0000   0.3083
  10.500   1.6592   0.02194   0.01551  -0.1183  0.4033  1.0000  -2.9475   0.0000   0.0000   0.0000   0.3029
  11.000   1.6824   0.02297   0.01661  -0.1136  0.3893  1.0000  -3.1379   0.0000   0.0000   0.0000   0.2982
  11.500   1.6995   0.02423   0.01797  -0.1084  0.3738  1.0000  -3.3171   0.0000   0.0000   0.0000   0.2935
  12.000   1.7153   0.02589   0.01977  -0.1035  0.3576  1.0000  -3.5032   0.0000   0.0000   0.0000   0.2891
  12.500   1.7263   0.02800   0.02189  -0.0986  0.3391  1.0000  -3.6969   0.0000   0.0000   0.0000   0.2847
  13.000   1.7324   0.03070   0.02472  -0.0937  0.3190  1.0000  -3.8786   0.0000   0.0000   0.0000   0.2806
  13.500   1.7354   0.03403   0.02815  -0.0892  0.2972  1.0000  -4.0507   0.0000   0.0000   0.0000   0.2768
  14.000   1.7307   0.03835   0.03250  -0.0848  0.2724  1.0000  -4.1994   0.0000   0.0000   0.0000   0.2733
  14.500   1.7168   0.04397   0.03810  -0.0808  0.2458  1.0000  -4.3170   0.0000   0.0000   0.0000   0.2701
  15.000   1.6969   0.05080   0.04490  -0.0775  0.2184  1.0000  -4.4113   0.0000   0.0000   0.0000   0.2675
  15.500   1.6734   0.05860   0.05273  -0.0751  0.1910  1.0000  -4.4882   0.0000   0.0000   0.0000   0.2654
  16.000   1.6438   0.06750   0.06161  -0.0733  0.1649  1.0000  -4.5389   0.0000   0.0000   0.0000   0.2639
  16.500   1.6104   0.07743   0.07152  -0.0725  0.1419  1.0000  -4.5683   0.0000   0.0000   0.0000   0.2631
  17.000   1.5792   0.08744   0.08150  -0.0724  0.1219  1.0000  -4.5975   0.0000   0.0000   0.0000   0.2626
  17.500   1.5523   0.09701   0.09111  -0.0727  0.1054  1.0000  -4.6357   0.0000   0.0000   0.0000   0.2624
  18.000   1.5323   0.10596   0.10011  -0.0735  0.0919  1.0000  -4.6927   0.0000   0.0000   0.0000   0.2623
  18.500   1.5167   0.11443   0.10864  -0.0747  0.0811  1.0000  -4.7610   0.0000   0.0000   0.0000   0.2623
  19.000   1.5020   0.12270   0.11686  -0.0761  0.0719  1.0000  -4.8495   0.0000   0.0000   0.0000   0.2625
  19.500   1.4978   0.12973   0.12406  -0.0778  0.0651  1.0000  -4.9836   0.0000   0.0000   0.0000   0.2624
  20.000   1.4926   0.13641   0.13070  -0.0792  0.0586  1.0000  -5.1076   0.0000   0.0000   0.0000   0.2622
  20.500   1.4926   0.14291   0.13741  -0.0813  0.0543  1.0000  -5.2532   0.0000   0.0000   0.0000   0.2623
  21.000   1.4927   0.14921   0.14377  -0.0834  0.0501  1.0000  -5.4010   0.0000   0.0000   0.0000   0.2623
  21.500   1.4987   0.15406   0.14870  -0.0848  0.0462  1.0000  -5.5678   0.0000   0.0000   0.0000   0.2616
  22.000   1.5002   0.16045   0.15531  -0.0876  0.0435  1.0000  -5.7086   0.0000   0.0000   0.0000   0.2619
  22.500   1.5030   0.16651   0.16152  -0.0904  0.0408  1.0000  -5.8587   0.0000   0.0000   0.0000   0.2623
  23.000   1.5054   0.17243   0.16748  -0.0935  0.0381  1.0000  -6.0084   0.0000   0.0000   0.0000   0.2626
  23.500   1.5076   0.17807   0.17329  -0.0963  0.0357  1.0000  -6.1338   0.0000   0.0000   0.0000   0.2629
  24.000   1.5018   0.18635   0.18186  -0.1013  0.0342  1.0000  -6.2082   0.0000   0.0000   0.0000   0.2650
  24.500   1.4956   0.19466   0.19043  -0.1067  0.0326  1.0000  -6.2635   0.0000   0.0000   0.0000   0.2673
  25.000   1.4872   0.20332   0.19935  -0.1130  0.0312  1.0000  -6.2895   0.0000   0.0000   0.0000   0.2704


