xflr5 v6.59

 Calculated polar for: NACA 8415

 1 1 Reynolds number fixed          Mach number fixed         

 xtrf =   1.000 (top)        1.000 (bottom)
 Mach =   0.000     Re =     0.250 e 6     Ncrit =   9.000

  alpha     CL        CD       CDp       Cm    Top Xtr Bot Xtr   Cpmin    Chinge    XCp    
 ------- -------- --------- --------- -------- ------- ------- -------- --------- ---------
 -15.000  -0.0124   0.15932   0.15609  -0.0903  0.9671  0.0338  -1.0457   0.0000   0.0000   0.0000  -7.8638
 -14.900  -0.0078   0.15817   0.15492  -0.0914  0.9667  0.0342  -1.0429   0.0000   0.0000   0.0000  -12.7771
 -14.800  -0.0033   0.15698   0.15373  -0.0925  0.9664  0.0346  -1.0431   0.0000   0.0000   0.0000  -31.3869
 -14.700   0.0011   0.15577   0.15251  -0.0937  0.9662  0.0351  -1.0477   0.0000   0.0000   0.0000  93.6240
 -14.500  -0.1160   0.16317   0.15979  -0.0761  0.9779  0.0333  -1.3236   0.0000   0.0000   0.0000  -0.5193
 -14.400  -0.1093   0.16180   0.15842  -0.0775  0.9771  0.0336  -1.3101   0.0000   0.0000   0.0000  -0.5789
 -14.300  -0.1025   0.16041   0.15702  -0.0789  0.9765  0.0340  -1.3002   0.0000   0.0000   0.0000  -0.6476
 -14.200  -0.0956   0.15897   0.15558  -0.0805  0.9758  0.0344  -1.2941   0.0000   0.0000   0.0000  -0.7273
 -14.100  -0.0889   0.15748   0.15408  -0.0821  0.9753  0.0349  -1.2930   0.0000   0.0000   0.0000  -0.8196
 -14.000  -0.0824   0.15590   0.15250  -0.0839  0.9748  0.0355  -1.3025   0.0000   0.0000   0.0000  -0.9246
 -13.900  -0.0775   0.15423   0.15082  -0.0862  0.9743  0.0359  -1.3470   0.0000   0.0000   0.0000  -1.0282
 -13.800  -0.0794   0.15315   0.14974  -0.0874  0.9713  0.0361  -1.4168   0.0000   0.0000   0.0000  -1.0116
 -13.700  -0.0736   0.15155   0.14815  -0.0885  0.9702  0.0361  -1.4103   0.0000   0.0000   0.0000  -1.1263
 -13.600  -0.0653   0.14996   0.14655  -0.0893  0.9694  0.0363  -1.3710   0.0000   0.0000   0.0000  -1.3120
 -13.500  -0.0575   0.14849   0.14508  -0.0904  0.9687  0.0364  -1.3396   0.0000   0.0000   0.0000  -1.5417
 -13.400  -0.0499   0.14708   0.14366  -0.0917  0.9680  0.0366  -1.3145   0.0000   0.0000   0.0000  -1.8401
 -13.300  -0.0423   0.14566   0.14224  -0.0931  0.9675  0.0369  -1.2944   0.0000   0.0000   0.0000  -2.2455
 -13.200  -0.0347   0.14422   0.14080  -0.0946  0.9670  0.0372  -1.2784   0.0000   0.0000   0.0000  -2.8315
 -13.100  -0.0272   0.14275   0.13931  -0.0963  0.9665  0.0376  -1.2667   0.0000   0.0000   0.0000  -3.7500
 -13.000  -0.0196   0.14122   0.13778  -0.0979  0.9661  0.0380  -1.2623   0.0000   0.0000   0.0000  -5.3736
 -12.900  -0.0179   0.14021   0.13677  -0.0979  0.9626  0.0383  -1.2643   0.0000   0.0000   0.0000  -5.8898
 -12.800  -0.0121   0.13872   0.13528  -0.0993  0.9613  0.0388  -1.2693   0.0000   0.0000   0.0000  -8.9832
 -12.700  -0.0064   0.13711   0.13367  -0.1011  0.9603  0.0394  -1.2910   0.0000   0.0000   0.0000  -17.5550
 -12.600  -0.0045   0.13548   0.13203  -0.1038  0.9593  0.0398  -1.3743   0.0000   0.0000   0.0000  -25.5887
 -12.400   0.1097   0.12471   0.12133  -0.1188  0.9475  0.0421  -1.0627   0.0000   0.0000   0.0000   1.4252
 -12.300   0.1157   0.12318   0.11979  -0.1203  0.9471  0.0427  -1.0635   0.0000   0.0000   0.0000   1.3765
 -12.200   0.1208   0.12161   0.11821  -0.1218  0.9468  0.0433  -1.0773   0.0000   0.0000   0.0000   1.3417
 -12.000   0.1130   0.11965   0.11626  -0.1233  0.9410  0.0440  -1.2013   0.0000   0.0000   0.0000   1.4293
 -11.900   0.1188   0.11797   0.11457  -0.1243  0.9403  0.0441  -1.1968   0.0000   0.0000   0.0000   1.3799
 -11.800   0.1287   0.11629   0.11289  -0.1250  0.9397  0.0443  -1.1512   0.0000   0.0000   0.0000   1.2977
 -11.700   0.1372   0.11481   0.11141  -0.1259  0.9392  0.0445  -1.1180   0.0000   0.0000   0.0000   1.2393
 -11.600   0.1450   0.11340   0.10999  -0.1270  0.9386  0.0448  -1.0931   0.0000   0.0000   0.0000   1.1935
 -11.500   0.1523   0.11199   0.10857  -0.1282  0.9382  0.0452  -1.0743   0.0000   0.0000   0.0000   1.1557
 -11.400   0.1593   0.11056   0.10714  -0.1294  0.9377  0.0456  -1.0606   0.0000   0.0000   0.0000   1.1236
 -11.300   0.1661   0.10909   0.10567  -0.1308  0.9372  0.0461  -1.0513   0.0000   0.0000   0.0000   1.0957
 -11.200   0.1727   0.10757   0.10414  -0.1323  0.9368  0.0468  -1.0498   0.0000   0.0000   0.0000   1.0719
 -11.100   0.1786   0.10598   0.10254  -0.1339  0.9364  0.0475  -1.0606   0.0000   0.0000   0.0000   1.0535
 -11.000   0.1784   0.10425   0.10080  -0.1366  0.9359  0.0484  -1.1439   0.0000   0.0000   0.0000   1.0694
 -10.800   0.1797   0.10190   0.09846  -0.1370  0.9299  0.0487  -1.1730   0.0000   0.0000   0.0000   1.0647
 -10.700   0.1902   0.10041   0.09697  -0.1376  0.9290  0.0490  -1.1249   0.0000   0.0000   0.0000   1.0225
 -10.600   0.1994   0.09903   0.09558  -0.1386  0.9282  0.0494  -1.0921   0.0000   0.0000   0.0000   0.9916
 -10.500   0.2079   0.09764   0.09418  -0.1398  0.9274  0.0499  -1.0698   0.0000   0.0000   0.0000   0.9670
 -10.400   0.2161   0.09619   0.09272  -0.1413  0.9267  0.0505  -1.0558   0.0000   0.0000   0.0000   0.9465
 -10.300   0.2240   0.09465   0.09117  -0.1430  0.9260  0.0512  -1.0495   0.0000   0.0000   0.0000   0.9293
 -10.200   0.2313   0.09301   0.08952  -0.1449  0.9254  0.0521  -1.0539   0.0000   0.0000   0.0000   0.9159
 -10.100   0.2319   0.09112   0.08762  -0.1485  0.9247  0.0532  -1.1402   0.0000   0.0000   0.0000   0.9296
  -9.900   0.1729   0.09735   0.09379  -0.1392  0.9293  0.0508  -1.2298   0.0000   0.0000   0.0000   1.1148
  -9.800   0.1804   0.09598   0.09241  -0.1409  0.9282  0.0515  -1.2266   0.0000   0.0000   0.0000   1.0875
  -9.700   0.1873   0.09447   0.09089  -0.1430  0.9271  0.0525  -1.2423   0.0000   0.0000   0.0000   1.0681
  -9.600   0.1800   0.09246   0.08888  -0.1499  0.9252  0.0535  -1.4436   0.0000   0.0000   0.0000   1.1390
  -9.500   0.1951   0.09080   0.08721  -0.1500  0.9250  0.0536  -1.3656   0.0000   0.0000   0.0000   1.0700
  -9.400   0.2088   0.08933   0.08573  -0.1508  0.9245  0.0539  -1.3062   0.0000   0.0000   0.0000   1.0201
  -9.300   0.2214   0.08797   0.08436  -0.1522  0.9241  0.0543  -1.2620   0.0000   0.0000   0.0000   0.9824
  -9.100   0.2300   0.08629   0.08267  -0.1522  0.9175  0.0550  -1.2249   0.0000   0.0000   0.0000   0.9541
  -9.000   0.2393   0.08503   0.08141  -0.1539  0.9160  0.0557  -1.2080   0.0000   0.0000   0.0000   0.9336
  -8.900   0.2492   0.08363   0.07999  -0.1561  0.9147  0.0566  -1.2003   0.0000   0.0000   0.0000   0.9152
  -8.800   0.2451   0.08086   0.07721  -0.1660  0.9121  0.0588  -1.4349   0.0000   0.0000   0.0000   0.9661
  -8.700   0.2610   0.07953   0.07586  -0.1657  0.9118  0.0591  -1.3484   0.0000   0.0000   0.0000   0.9212
  -8.600   0.2767   0.07828   0.07460  -0.1662  0.9113  0.0594  -1.2774   0.0000   0.0000   0.0000   0.8849
  -8.500   0.2752   0.07792   0.07425  -0.1643  0.9058  0.0597  -1.2603   0.0000   0.0000   0.0000   0.8806
  -8.400   0.2853   0.07690   0.07321  -0.1652  0.9037  0.0602  -1.2268   0.0000   0.0000   0.0000   0.8613
  -8.300   0.2960   0.07574   0.07204  -0.1668  0.9019  0.0609  -1.2038   0.0000   0.0000   0.0000   0.8445
  -8.200   0.3068   0.07443   0.07071  -0.1691  0.9003  0.0618  -1.1918   0.0000   0.0000   0.0000   0.8304
  -8.100   0.3171   0.07290   0.06915  -0.1722  0.8987  0.0633  -1.2018   0.0000   0.0000   0.0000   0.8212
  -8.000   0.2896   0.07138   0.06764  -0.1762  0.8882  0.0647  -1.4464   0.0000   0.0000   0.0000   0.8885
  -7.800   0.3190   0.06889   0.06511  -0.1771  0.8862  0.0652  -1.3186   0.0000   0.0000   0.0000   0.8319
  -7.700   0.3343   0.06781   0.06401  -0.1781  0.8851  0.0656  -1.2600   0.0000   0.0000   0.0000   0.8082
  -7.600   0.3317   0.06750   0.06371  -0.1761  0.8795  0.0659  -1.2485   0.0000   0.0000   0.0000   0.8061
  -7.500   0.3395   0.06665   0.06285  -0.1766  0.8765  0.0664  -1.2208   0.0000   0.0000   0.0000   0.7943
  -7.400   0.3491   0.06565   0.06182  -0.1778  0.8740  0.0673  -1.1971   0.0000   0.0000   0.0000   0.7827
  -7.300   0.3591   0.06445   0.06059  -0.1800  0.8718  0.0687  -1.1867   0.0000   0.0000   0.0000   0.7737
  -7.200   0.3523   0.06403   0.06018  -0.1784  0.8656  0.0695  -1.2040   0.0000   0.0000   0.0000   0.7786
  -7.100   0.3190   0.06207   0.05822  -0.1826  0.8563  0.0712  -1.4539   0.0000   0.0000   0.0000   0.8460
  -7.000   0.3138   0.06111   0.05727  -0.1817  0.8510  0.0714  -1.4749   0.0000   0.0000   0.0000   0.8523
  -6.900   0.3266   0.06048   0.05663  -0.1802  0.8492  0.0716  -1.3913   0.0000   0.0000   0.0000   0.8241
  -6.800   0.3403   0.05983   0.05595  -0.1798  0.8474  0.0721  -1.3222   0.0000   0.0000   0.0000   0.7994
  -6.700   0.3537   0.05905   0.05515  -0.1802  0.8455  0.0726  -1.2704   0.0000   0.0000   0.0000   0.7798
  -6.600   0.3587   0.05844   0.05452  -0.1800  0.8423  0.0732  -1.2484   0.0000   0.0000   0.0000   0.7713
  -6.500   0.3564   0.05802   0.05412  -0.1786  0.8374  0.0736  -1.2443   0.0000   0.0000   0.0000   0.7703
  -6.400   0.3606   0.05722   0.05330  -0.1789  0.8339  0.0744  -1.2360   0.0000   0.0000   0.0000   0.7648
  -6.300   0.3666   0.05614   0.05217  -0.1804  0.8311  0.0756  -1.2375   0.0000   0.0000   0.0000   0.7601
  -6.200   0.3612   0.05536   0.05140  -0.1801  0.8259  0.0768  -1.2666   0.0000   0.0000   0.0000   0.7662
  -6.100   0.3434   0.05164   0.04760  -0.1864  0.8191  0.0788  -1.4902   0.0000   0.0000   0.0000   0.8109
  -6.000   0.3542   0.05108   0.04703  -0.1860  0.8171  0.0791  -1.4323   0.0000   0.0000   0.0000   0.7923
  -5.900   0.3572   0.05070   0.04665  -0.1845  0.8135  0.0793  -1.4006   0.0000   0.0000   0.0000   0.7833
  -5.800   0.3597   0.05030   0.04626  -0.1832  0.8095  0.0797  -1.3732   0.0000   0.0000   0.0000   0.7755
  -5.700   0.3665   0.04979   0.04572  -0.1828  0.8064  0.0802  -1.3387   0.0000   0.0000   0.0000   0.7642
  -5.600   0.3756   0.04918   0.04508  -0.1830  0.8038  0.0810  -1.3033   0.0000   0.0000   0.0000   0.7521
  -5.500   0.3808   0.04851   0.04439  -0.1831  0.8005  0.0821  -1.2861   0.0000   0.0000   0.0000   0.7450
  -5.400   0.3802   0.04782   0.04369  -0.1824  0.7959  0.0832  -1.2894   0.0000   0.0000   0.0000   0.7437
  -5.300   0.3494   0.03561   0.03106  -0.1904  0.7907  0.0658  -1.8528   0.0000   0.0000   0.0000   0.8100
  -5.200   0.3619   0.03530   0.03070  -0.1911  0.7885  0.0664  -1.7962   0.0000   0.0000   0.0000   0.7922
  -5.100   0.3639   0.03532   0.03075  -0.1894  0.7841  0.0670  -1.7606   0.0000   0.0000   0.0000   0.7843
  -5.000   0.3731   0.03613   0.03158  -0.1887  0.7804  0.0728  -1.6701   0.0000   0.0000   0.0000   0.7689
  -4.900   0.3826   0.03598   0.03140  -0.1886  0.7774  0.0736  -1.6216   0.0000   0.0000   0.0000   0.7554
  -4.800   0.3369   0.02114   0.01479  -0.1872  0.7748  0.0626  -2.3568   0.0000   0.0000   0.0000   0.8204
  -4.700   0.3392   0.02061   0.01410  -0.1856  0.7708  0.0632  -2.3482   0.0000   0.0000   0.0000   0.8114
  -4.600   0.3433   0.02003   0.01333  -0.1843  0.7671  0.0640  -2.3385   0.0000   0.0000   0.0000   0.8006
  -4.500   0.3510   0.01945   0.01249  -0.1836  0.7640  0.0648  -2.3213   0.0000   0.0000   0.0000   0.7864
  -4.400   0.3634   0.01910   0.01215  -0.1840  0.7615  0.0657  -2.2623   0.0000   0.0000   0.0000   0.7688
  -4.300   0.3732   0.01897   0.01204  -0.1838  0.7585  0.0665  -2.2080   0.0000   0.0000   0.0000   0.7542
  -4.200   0.3781   0.01888   0.01196  -0.1825  0.7543  0.0672  -2.1684   0.0000   0.0000   0.0000   0.7439
  -4.100   0.3868   0.01867   0.01170  -0.1820  0.7509  0.0683  -2.1249   0.0000   0.0000   0.0000   0.7312
  -4.000   0.3977   0.01834   0.01123  -0.1819  0.7482  0.0695  -2.0875   0.0000   0.0000   0.0000   0.7176
  -3.900   0.4100   0.01796   0.01061  -0.1821  0.7458  0.0709  -2.0557   0.0000   0.0000   0.0000   0.7038
  -3.800   0.4125   0.01771   0.01031  -0.1804  0.7414  0.0715  -2.0351   0.0000   0.0000   0.0000   0.6964
  -3.700   0.4201   0.01749   0.01012  -0.1797  0.7379  0.0724  -1.9931   0.0000   0.0000   0.0000   0.6864
  -3.600   0.4309   0.01735   0.00997  -0.1796  0.7349  0.0735  -1.9432   0.0000   0.0000   0.0000   0.6750
  -3.500   0.4446   0.01721   0.00977  -0.1801  0.7324  0.0750  -1.8898   0.0000   0.0000   0.0000   0.6628
  -3.400   0.4495   0.01708   0.00960  -0.1788  0.7283  0.0761  -1.8590   0.0000   0.0000   0.0000   0.6551
  -3.300   0.4561   0.01691   0.00934  -0.1778  0.7245  0.0774  -1.8283   0.0000   0.0000   0.0000   0.6468
  -3.200   0.4655   0.01669   0.00899  -0.1774  0.7213  0.0787  -1.7934   0.0000   0.0000   0.0000   0.6375
  -3.100   0.4783   0.01645   0.00875  -0.1778  0.7186  0.0801  -1.7418   0.0000   0.0000   0.0000   0.6277
  -3.000   0.4849   0.01637   0.00868  -0.1769  0.7148  0.0812  -1.7029   0.0000   0.0000   0.0000   0.6203
  -2.900   0.4912   0.01629   0.00858  -0.1758  0.7108  0.0825  -1.6665   0.0000   0.0000   0.0000   0.6132
  -2.800   0.5006   0.01617   0.00840  -0.1754  0.7073  0.0842  -1.6280   0.0000   0.0000   0.0000   0.6053
  -2.700   0.5131   0.01605   0.00813  -0.1756  0.7045  0.0862  -1.5883   0.0000   0.0000   0.0000   0.5967
  -2.600   0.5198   0.01585   0.00793  -0.1747  0.7008  0.0875  -1.5564   0.0000   0.0000   0.0000   0.5903
  -2.500   0.5258   0.01575   0.00786  -0.1736  0.6968  0.0888  -1.5220   0.0000   0.0000   0.0000   0.5841
  -2.400   0.5350   0.01568   0.00777  -0.1732  0.6933  0.0905  -1.4820   0.0000   0.0000   0.0000   0.5773
  -2.300   0.5473   0.01560   0.00761  -0.1734  0.6905  0.0927  -1.4384   0.0000   0.0000   0.0000   0.5700
  -2.200   0.5549   0.01554   0.00748  -0.1726  0.6869  0.0946  -1.4057   0.0000   0.0000   0.0000   0.5640
  -2.100   0.5607   0.01540   0.00733  -0.1715  0.6830  0.0962  -1.3763   0.0000   0.0000   0.0000   0.5585
  -2.000   0.5693   0.01529   0.00724  -0.1709  0.6796  0.0980  -1.3378   0.0000   0.0000   0.0000   0.5527
  -1.900   0.5810   0.01524   0.00716  -0.1710  0.6767  0.1003  -1.2947   0.0000   0.0000   0.0000   0.5465
  -1.800   0.5901   0.01520   0.00707  -0.1706  0.6734  0.1027  -1.2605   0.0000   0.0000   0.0000   0.5409
  -1.700   0.5956   0.01517   0.00699  -0.1693  0.6694  0.1047  -1.2338   0.0000   0.0000   0.0000   0.5359
  -1.600   0.6034   0.01503   0.00684  -0.1686  0.6660  0.1068  -1.2023   0.0000   0.0000   0.0000   0.5308
  -1.500   0.6143   0.01497   0.00678  -0.1686  0.6630  0.1093  -1.1628   0.0000   0.0000   0.0000   0.5255
  -1.400   0.6251   0.01495   0.00672  -0.1685  0.6600  0.1121  -1.1566   0.0000   0.0000   0.0000   0.5203
  -1.300   0.6299   0.01493   0.00668  -0.1671  0.6561  0.1145  -1.1613   0.0000   0.0000   0.0000   0.5159
  -1.200   0.6372   0.01486   0.00657  -0.1663  0.6526  0.1170  -1.1678   0.0000   0.0000   0.0000   0.5113
  -1.100   0.6470   0.01478   0.00651  -0.1661  0.6496  0.1197  -1.1759   0.0000   0.0000   0.0000   0.5067
  -1.000   0.6598   0.01477   0.00645  -0.1664  0.6470  0.1233  -1.1858   0.0000   0.0000   0.0000   0.5020
  -0.900   0.6649   0.01477   0.00643  -0.1651  0.6435  0.1261  -1.1908   0.0000   0.0000   0.0000   0.4979
  -0.800   0.6715   0.01472   0.00637  -0.1641  0.6401  0.1290  -1.1967   0.0000   0.0000   0.0000   0.4938
  -0.700   0.6798   0.01466   0.00633  -0.1636  0.6371  0.1320  -1.2041   0.0000   0.0000   0.0000   0.4898
  -0.600   0.6910   0.01466   0.00629  -0.1636  0.6345  0.1359  -1.2134   0.0000   0.0000   0.0000   0.4857
  -0.500   0.7028   0.01469   0.00623  -0.1637  0.6319  0.1403  -1.2230   0.0000   0.0000   0.0000   0.4816
  -0.400   0.7071   0.01462   0.00622  -0.1623  0.6286  0.1432  -1.2277   0.0000   0.0000   0.0000   0.4780
  -0.300   0.7138   0.01460   0.00622  -0.1614  0.6255  0.1466  -1.2340   0.0000   0.0000   0.0000   0.4744
  -0.200   0.7224   0.01461   0.00620  -0.1608  0.6227  0.1509  -1.2416   0.0000   0.0000   0.0000   0.4707
  -0.100   0.7339   0.01460   0.00613  -0.1609  0.6202  0.1557  -1.2510   0.0000   0.0000   0.0000   0.4671
   0.000   0.7457   0.01459   0.00613  -0.1610  0.6178  0.1606  -1.2607   0.0000   0.0000   0.0000   0.4637
   0.100   0.7498   0.01460   0.00615  -0.1596  0.6147  0.1645  -1.2652   0.0000   0.0000   0.0000   0.4604
   0.300   0.7641   0.01457   0.00613  -0.1579  0.6093  0.1736  -1.2784   0.0000   0.0000   0.0000   0.4538
   0.400   0.7746   0.01459   0.00613  -0.1578  0.6070  0.1794  -1.2873   0.0000   0.0000   0.0000   0.4507
   0.500   0.7878   0.01460   0.00610  -0.1583  0.6050  0.1859  -1.2982   0.0000   0.0000   0.0000   0.4477
   0.600   0.7961   0.01462   0.00613  -0.1577  0.6026  0.1914  -1.3058   0.0000   0.0000   0.0000   0.4447
   0.700   0.8012   0.01464   0.00616  -0.1564  0.6000  0.1968  -1.3113   0.0000   0.0000   0.0000   0.4417
   0.800   0.8080   0.01463   0.00617  -0.1556  0.5974  0.2023  -1.3179   0.0000   0.0000   0.0000   0.4388
   0.900   0.8164   0.01464   0.00619  -0.1550  0.5951  0.2087  -1.3257   0.0000   0.0000   0.0000   0.4359
   1.000   0.8266   0.01466   0.00618  -0.1548  0.5930  0.2161  -1.3346   0.0000   0.0000   0.0000   0.4332
   1.100   0.8395   0.01468   0.00620  -0.1553  0.5911  0.2244  -1.3454   0.0000   0.0000   0.0000   0.4306
   1.200   0.8505   0.01471   0.00622  -0.1553  0.5891  0.2326  -1.3548   0.0000   0.0000   0.0000   0.4281
   1.300   0.8549   0.01473   0.00628  -0.1539  0.5867  0.2390  -1.3597   0.0000   0.0000   0.0000   0.4254
   1.400   0.8615   0.01475   0.00631  -0.1530  0.5844  0.2468  -1.3661   0.0000   0.0000   0.0000   0.4228
   1.500   0.8695   0.01476   0.00635  -0.1524  0.5823  0.2551  -1.3736   0.0000   0.0000   0.0000   0.4203
   1.600   0.8789   0.01478   0.00638  -0.1521  0.5804  0.2644  -1.3823   0.0000   0.0000   0.0000   0.4179
   1.700   0.8898   0.01481   0.00640  -0.1520  0.5786  0.2757  -1.3921   0.0000   0.0000   0.0000   0.4156
   1.800   0.9029   0.01483   0.00643  -0.1525  0.5769  0.2883  -1.4034   0.0000   0.0000   0.0000   0.4134
   1.900   0.9159   0.01486   0.00647  -0.1530  0.5752  0.3020  -1.4145   0.0000   0.0000   0.0000   0.4114
   2.000   0.9200   0.01487   0.00655  -0.1516  0.5732  0.3125  -1.4195   0.0000   0.0000   0.0000   0.4090
   2.100   0.9262   0.01488   0.00661  -0.1506  0.5712  0.3259  -1.4260   0.0000   0.0000   0.0000   0.4067
   2.200   0.9339   0.01488   0.00666  -0.1500  0.5692  0.3425  -1.4335   0.0000   0.0000   0.0000   0.4045
   2.400   1.0668   0.01421   0.00723  -0.1748  0.5639  1.0000  -1.5268   0.0000   0.0000   0.0000   0.4075
   2.500   1.0798   0.01431   0.00725  -0.1753  0.5624  1.0000  -1.5387   0.0000   0.0000   0.0000   0.4058
   2.600   1.0916   0.01442   0.00730  -0.1755  0.5609  1.0000  -1.5496   0.0000   0.0000   0.0000   0.4040
   2.700   1.0984   0.01451   0.00740  -0.1746  0.5591  1.0000  -1.5567   0.0000   0.0000   0.0000   0.4021
   2.800   1.1062   0.01460   0.00748  -0.1740  0.5573  1.0000  -1.5648   0.0000   0.0000   0.0000   0.4003
   2.900   1.1149   0.01470   0.00756  -0.1735  0.5555  1.0000  -1.5734   0.0000   0.0000   0.0000   0.3985
   3.000   1.1243   0.01479   0.00762  -0.1732  0.5538  1.0000  -1.5827   0.0000   0.0000   0.0000   0.3968
   3.100   1.1344   0.01488   0.00768  -0.1731  0.5522  1.0000  -1.5925   0.0000   0.0000   0.0000   0.3951
   3.200   1.1453   0.01497   0.00773  -0.1731  0.5507  1.0000  -1.6028   0.0000   0.0000   0.0000   0.3935
   3.300   1.1571   0.01507   0.00778  -0.1733  0.5493  1.0000  -1.6139   0.0000   0.0000   0.0000   0.3920
   3.400   1.1707   0.01518   0.00782  -0.1739  0.5479  1.0000  -1.6265   0.0000   0.0000   0.0000   0.3906
   3.500   1.1812   0.01530   0.00792  -0.1739  0.5465  1.0000  -1.6369   0.0000   0.0000   0.0000   0.3890
   3.600   1.1879   0.01540   0.00803  -0.1730  0.5450  1.0000  -1.6444   0.0000   0.0000   0.0000   0.3874
   3.700   1.1956   0.01551   0.00814  -0.1724  0.5434  1.0000  -1.6527   0.0000   0.0000   0.0000   0.3857
   3.800   1.2041   0.01561   0.00824  -0.1719  0.5418  1.0000  -1.6616   0.0000   0.0000   0.0000   0.3842
   3.900   1.2132   0.01571   0.00833  -0.1716  0.5402  1.0000  -1.6710   0.0000   0.0000   0.0000   0.3827
   4.000   1.2230   0.01581   0.00841  -0.1714  0.5387  1.0000  -1.6810   0.0000   0.0000   0.0000   0.3812
   4.100   1.2336   0.01590   0.00848  -0.1714  0.5373  1.0000  -1.6916   0.0000   0.0000   0.0000   0.3798
   4.200   1.2451   0.01600   0.00854  -0.1715  0.5359  1.0000  -1.7029   0.0000   0.0000   0.0000   0.3785
   4.300   1.2575   0.01611   0.00860  -0.1719  0.5347  1.0000  -1.7150   0.0000   0.0000   0.0000   0.3773
   4.400   1.2716   0.01623   0.00867  -0.1726  0.5335  1.0000  -1.7286   0.0000   0.0000   0.0000   0.3762
   4.500   1.2802   0.01636   0.00880  -0.1722  0.5321  1.0000  -1.7380   0.0000   0.0000   0.0000   0.3748
   4.600   1.2865   0.01648   0.00895  -0.1713  0.5307  1.0000  -1.7456   0.0000   0.0000   0.0000   0.3733
   4.700   1.2936   0.01659   0.00908  -0.1706  0.5292  1.0000  -1.7539   0.0000   0.0000   0.0000   0.3718
   4.800   1.3015   0.01670   0.00920  -0.1700  0.5277  1.0000  -1.7627   0.0000   0.0000   0.0000   0.3704
   4.900   1.3101   0.01681   0.00930  -0.1696  0.5263  1.0000  -1.7722   0.0000   0.0000   0.0000   0.3691
   5.000   1.3196   0.01692   0.00940  -0.1694  0.5249  1.0000  -1.7824   0.0000   0.0000   0.0000   0.3678
   5.100   1.3300   0.01702   0.00948  -0.1693  0.5235  1.0000  -1.7934   0.0000   0.0000   0.0000   0.3666
   5.200   1.3414   0.01713   0.00956  -0.1695  0.5222  1.0000  -1.8052   0.0000   0.0000   0.0000   0.3655
   5.300   1.3539   0.01724   0.00965  -0.1699  0.5210  1.0000  -1.8182   0.0000   0.0000   0.0000   0.3644
   5.400   1.3676   0.01736   0.00973  -0.1705  0.5199  1.0000  -1.8321   0.0000   0.0000   0.0000   0.3635
   5.500   1.3812   0.01750   0.00984  -0.1711  0.5187  1.0000  -1.8459   0.0000   0.0000   0.0000   0.3625
   5.600   1.3857   0.01764   0.01002  -0.1699  0.5174  1.0000  -1.8525   0.0000   0.0000   0.0000   0.3611
   5.700   1.3911   0.01776   0.01017  -0.1689  0.5160  1.0000  -1.8598   0.0000   0.0000   0.0000   0.3597
   5.800   1.3974   0.01789   0.01032  -0.1680  0.5146  1.0000  -1.8679   0.0000   0.0000   0.0000   0.3584
   5.900   1.4048   0.01801   0.01046  -0.1674  0.5132  1.0000  -1.8769   0.0000   0.0000   0.0000   0.3571
   6.000   1.4133   0.01813   0.01058  -0.1670  0.5118  1.0000  -1.8866   0.0000   0.0000   0.0000   0.3560
   6.100   1.4227   0.01824   0.01069  -0.1668  0.5105  1.0000  -1.8977   0.0000   0.0000   0.0000   0.3549
   6.200   1.4332   0.01835   0.01079  -0.1668  0.5092  1.0000  -1.9097   0.0000   0.0000   0.0000   0.3538
   6.300   1.4449   0.01847   0.01088  -0.1670  0.5080  1.0000  -1.9226   0.0000   0.0000   0.0000   0.3529
   6.400   1.4577   0.01858   0.01098  -0.1675  0.5069  1.0000  -1.9365   0.0000   0.0000   0.0000   0.3520
   6.500   1.4722   0.01872   0.01108  -0.1683  0.5057  1.0000  -1.9517   0.0000   0.0000   0.0000   0.3513
   6.600   1.4864   0.01888   0.01122  -0.1691  0.5046  1.0000  -1.9665   0.0000   0.0000   0.0000   0.3505
   6.700   1.4886   0.01902   0.01141  -0.1674  0.5033  1.0000  -1.9717   0.0000   0.0000   0.0000   0.3491
   6.800   1.4923   0.01916   0.01159  -0.1660  0.5019  1.0000  -1.9780   0.0000   0.0000   0.0000   0.3477
   6.900   1.4976   0.01930   0.01176  -0.1650  0.5005  1.0000  -1.9861   0.0000   0.0000   0.0000   0.3465
   7.000   1.5043   0.01944   0.01192  -0.1643  0.4991  1.0000  -1.9954   0.0000   0.0000   0.0000   0.3453
   7.100   1.5123   0.01957   0.01206  -0.1638  0.4978  1.0000  -2.0057   0.0000   0.0000   0.0000   0.3443
   7.200   1.5213   0.01969   0.01219  -0.1635  0.4965  1.0000  -2.0170   0.0000   0.0000   0.0000   0.3433
   7.300   1.5315   0.01981   0.01231  -0.1635  0.4952  1.0000  -2.0293   0.0000   0.0000   0.0000   0.3424
   7.400   1.5428   0.01993   0.01242  -0.1637  0.4940  1.0000  -2.0426   0.0000   0.0000   0.0000   0.3415
   7.500   1.5556   0.02005   0.01252  -0.1641  0.4929  1.0000  -2.0571   0.0000   0.0000   0.0000   0.3408
   7.600   1.5703   0.02018   0.01262  -0.1650  0.4917  1.0000  -2.0736   0.0000   0.0000   0.0000   0.3402
   7.700   1.5870   0.02035   0.01276  -0.1663  0.4906  1.0000  -2.0918   0.0000   0.0000   0.0000   0.3397
   7.800   1.5870   0.02052   0.01299  -0.1643  0.4893  1.0000  -2.0958   0.0000   0.0000   0.0000   0.3382
   7.900   1.5892   0.02068   0.01321  -0.1627  0.4879  1.0000  -2.1016   0.0000   0.0000   0.0000   0.3369
   8.000   1.5932   0.02084   0.01342  -0.1614  0.4865  1.0000  -2.1090   0.0000   0.0000   0.0000   0.3357
   8.100   1.5987   0.02100   0.01361  -0.1605  0.4852  1.0000  -2.1177   0.0000   0.0000   0.0000   0.3346
   8.200   1.6057   0.02115   0.01377  -0.1599  0.4838  1.0000  -2.1278   0.0000   0.0000   0.0000   0.3336
   8.300   1.6141   0.02128   0.01392  -0.1595  0.4825  1.0000  -2.1395   0.0000   0.0000   0.0000   0.3327
   8.400   1.6237   0.02141   0.01405  -0.1594  0.4812  1.0000  -2.1525   0.0000   0.0000   0.0000   0.3318
   8.500   1.6348   0.02152   0.01416  -0.1595  0.4800  1.0000  -2.1668   0.0000   0.0000   0.0000   0.3311
   8.600   1.6476   0.02164   0.01426  -0.1600  0.4788  1.0000  -2.1826   0.0000   0.0000   0.0000   0.3304
   8.700   1.6626   0.02177   0.01437  -0.1609  0.4777  1.0000  -2.2003   0.0000   0.0000   0.0000   0.3299
   8.800   1.6802   0.02194   0.01451  -0.1624  0.4765  1.0000  -2.2204   0.0000   0.0000   0.0000   0.3296
   8.900   1.6781   0.02214   0.01478  -0.1600  0.4752  1.0000  -2.2232   0.0000   0.0000   0.0000   0.3281
   9.000   1.6786   0.02234   0.01505  -0.1582  0.4738  1.0000  -2.2283   0.0000   0.0000   0.0000   0.3268
   9.100   1.6812   0.02254   0.01529  -0.1568  0.4723  1.0000  -2.2353   0.0000   0.0000   0.0000   0.3256
   9.200   1.6856   0.02272   0.01551  -0.1557  0.4709  1.0000  -2.2440   0.0000   0.0000   0.0000   0.3246
   9.300   1.6917   0.02288   0.01571  -0.1549  0.4695  1.0000  -2.2543   0.0000   0.0000   0.0000   0.3236
   9.400   1.6997   0.02303   0.01587  -0.1545  0.4681  1.0000  -2.2667   0.0000   0.0000   0.0000   0.3227
   9.500   1.7093   0.02315   0.01600  -0.1544  0.4669  1.0000  -2.2809   0.0000   0.0000   0.0000   0.3220
   9.600   1.7206   0.02327   0.01611  -0.1546  0.4656  1.0000  -2.2968   0.0000   0.0000   0.0000   0.3213
   9.700   1.7341   0.02337   0.01620  -0.1552  0.4645  1.0000  -2.3146   0.0000   0.0000   0.0000   0.3207
   9.800   1.7504   0.02349   0.01629  -0.1564  0.4633  1.0000  -2.3353   0.0000   0.0000   0.0000   0.3204
   9.900   1.7599   0.02368   0.01650  -0.1563  0.4620  1.0000  -2.3499   0.0000   0.0000   0.0000   0.3196
  10.000   1.7566   0.02394   0.01684  -0.1538  0.4606  1.0000  -2.3522   0.0000   0.0000   0.0000   0.3182
  10.100   1.7563   0.02420   0.01716  -0.1520  0.4591  1.0000  -2.3574   0.0000   0.0000   0.0000   0.3170
  10.200   1.7584   0.02443   0.01745  -0.1506  0.4575  1.0000  -2.3649   0.0000   0.0000   0.0000   0.3159
  10.300   1.7624   0.02463   0.01769  -0.1495  0.4560  1.0000  -2.3793   0.0000   0.0000   0.0000   0.3149
  10.400   1.7687   0.02481   0.01788  -0.1488  0.4546  1.0000  -2.4128   0.0000   0.0000   0.0000   0.3140
  10.500   1.7771   0.02494   0.01803  -0.1485  0.4532  1.0000  -2.4515   0.0000   0.0000   0.0000   0.3133
  10.600   1.7878   0.02505   0.01814  -0.1486  0.4519  1.0000  -2.4950   0.0000   0.0000   0.0000   0.3126
  10.700   1.8008   0.02513   0.01822  -0.1491  0.4507  1.0000  -2.5450   0.0000   0.0000   0.0000   0.3121
  10.800   1.8171   0.02521   0.01826  -0.1502  0.4495  1.0000  -2.6024   0.0000   0.0000   0.0000   0.3118
  10.900   1.8280   0.02539   0.01845  -0.1504  0.4481  1.0000  -2.6503   0.0000   0.0000   0.0000   0.3112
  11.000   1.8216   0.02574   0.01890  -0.1475  0.4466  1.0000  -2.6611   0.0000   0.0000   0.0000   0.3097
  11.100   1.8189   0.02607   0.01931  -0.1454  0.4450  1.0000  -2.6800   0.0000   0.0000   0.0000   0.3084
  11.200   1.8194   0.02636   0.01965  -0.1438  0.4433  1.0000  -2.7057   0.0000   0.0000   0.0000   0.3073
  11.300   1.8224   0.02660   0.01993  -0.1426  0.4418  1.0000  -2.7381   0.0000   0.0000   0.0000   0.3064
  11.400   1.8282   0.02679   0.02014  -0.1419  0.4402  1.0000  -2.7773   0.0000   0.0000   0.0000   0.3055
  11.500   1.8368   0.02691   0.02027  -0.1417  0.4388  1.0000  -2.8232   0.0000   0.0000   0.0000   0.3048
  11.600   1.8482   0.02698   0.02034  -0.1419  0.4374  1.0000  -2.8757   0.0000   0.0000   0.0000   0.3043
  11.700   1.8631   0.02700   0.02034  -0.1427  0.4361  1.0000  -2.9390   0.0000   0.0000   0.0000   0.3039
  11.800   1.8812   0.02703   0.02033  -0.1440  0.4346  1.0000  -3.0106   0.0000   0.0000   0.0000   0.3036
  11.900   1.8699   0.02753   0.02095  -0.1406  0.4329  1.0000  -3.0109   0.0000   0.0000   0.0000   0.3020
  12.000   1.8631   0.02799   0.02149  -0.1379  0.4310  1.0000  -3.0223   0.0000   0.0000   0.0000   0.3007
  12.100   1.8600   0.02836   0.02192  -0.1359  0.4289  1.0000  -3.0429   0.0000   0.0000   0.0000   0.2995
  12.200   1.8610   0.02859   0.02218  -0.1345  0.4267  1.0000  -3.0737   0.0000   0.0000   0.0000   0.2985
  12.300   1.8676   0.02858   0.02215  -0.1339  0.4241  1.0000  -3.1193   0.0000   0.0000   0.0000   0.2977
  12.400   1.8858   0.02822   0.02166  -0.1349  0.4209  1.0000  -3.1974   0.0000   0.0000   0.0000   0.2973
  12.500   1.8722   0.02892   0.02249  -0.1314  0.4189  1.0000  -3.1917   0.0000   0.0000   0.0000   0.2958
  12.600   1.8628   0.02953   0.02319  -0.1287  0.4164  1.0000  -3.1971   0.0000   0.0000   0.0000   0.2944
  12.700   1.8591   0.02994   0.02363  -0.1267  0.4136  1.0000  -3.2176   0.0000   0.0000   0.0000   0.2933
  12.800   1.8616   0.03008   0.02376  -0.1256  0.4107  1.0000  -3.2548   0.0000   0.0000   0.0000   0.2923
  12.900   1.8716   0.02996   0.02357  -0.1255  0.4079  1.0000  -3.3121   0.0000   0.0000   0.0000   0.2917
  13.000   1.8645   0.03063   0.02432  -0.1232  0.4055  1.0000  -3.3232   0.0000   0.0000   0.0000   0.2905
  13.100   1.8568   0.03137   0.02515  -0.1210  0.4031  1.0000  -3.3328   0.0000   0.0000   0.0000   0.2893
  13.200   1.8543   0.03190   0.02573  -0.1194  0.4006  1.0000  -3.3561   0.0000   0.0000   0.0000   0.2883
  13.300   1.8562   0.03225   0.02610  -0.1184  0.3983  1.0000  -3.3914   0.0000   0.0000   0.0000   0.2875
  13.400   1.8615   0.03245   0.02629  -0.1178  0.3963  1.0000  -3.4378   0.0000   0.0000   0.0000   0.2867
  13.500   1.8712   0.03246   0.02627  -0.1177  0.3943  1.0000  -3.4968   0.0000   0.0000   0.0000   0.2861
  13.600   1.8641   0.03332   0.02723  -0.1158  0.3921  1.0000  -3.5082   0.0000   0.0000   0.0000   0.2851
  13.700   1.8585   0.03415   0.02813  -0.1140  0.3897  1.0000  -3.5236   0.0000   0.0000   0.0000   0.2841
  13.800   1.8566   0.03479   0.02882  -0.1127  0.3874  1.0000  -3.5498   0.0000   0.0000   0.0000   0.2832
  13.900   1.8580   0.03525   0.02931  -0.1118  0.3851  1.0000  -3.5853   0.0000   0.0000   0.0000   0.2825
  14.000   1.8621   0.03555   0.02961  -0.1112  0.3830  1.0000  -3.6291   0.0000   0.0000   0.0000   0.2817
  14.100   1.8700   0.03565   0.02968  -0.1109  0.3809  1.0000  -3.6842   0.0000   0.0000   0.0000   0.2811
  14.200   1.8612   0.03680   0.03094  -0.1091  0.3784  1.0000  -3.6901   0.0000   0.0000   0.0000   0.2802
  14.300   1.8567   0.03772   0.03194  -0.1077  0.3758  1.0000  -3.7085   0.0000   0.0000   0.0000   0.2793
  14.400   1.8555   0.03844   0.03269  -0.1067  0.3732  1.0000  -3.7378   0.0000   0.0000   0.0000   0.2785
  14.500   1.8574   0.03894   0.03320  -0.1059  0.3709  1.0000  -3.7773   0.0000   0.0000   0.0000   0.2778
  14.600   1.8644   0.03909   0.03332  -0.1056  0.3686  1.0000  -3.8325   0.0000   0.0000   0.0000   0.2772
  14.700   1.8585   0.04021   0.03453  -0.1043  0.3660  1.0000  -3.8475   0.0000   0.0000   0.0000   0.2764
  14.800   1.8534   0.04133   0.03572  -0.1030  0.3631  1.0000  -3.8648   0.0000   0.0000   0.0000   0.2756
  14.900   1.8514   0.04221   0.03664  -0.1021  0.3603  1.0000  -3.8920   0.0000   0.0000   0.0000   0.2749
  15.000   1.8537   0.04274   0.03717  -0.1015  0.3577  1.0000  -3.9329   0.0000   0.0000   0.0000   0.2743
  15.100   1.8584   0.04308   0.03749  -0.1010  0.3552  1.0000  -3.9817   0.0000   0.0000   0.0000   0.2736
  15.200   1.8505   0.04454   0.03905  -0.0998  0.3522  1.0000  -3.9898   0.0000   0.0000   0.0000   0.2729
  15.300   1.8461   0.04572   0.04028  -0.0988  0.3491  1.0000  -4.0095   0.0000   0.0000   0.0000   0.2723
  15.400   1.8460   0.04653   0.04110  -0.0981  0.3461  1.0000  -4.0427   0.0000   0.0000   0.0000   0.2717
  15.500   1.8501   0.04694   0.04149  -0.0977  0.3434  1.0000  -4.0899   0.0000   0.0000   0.0000   0.2710
  15.600   1.8442   0.04834   0.04297  -0.0967  0.3402  1.0000  -4.1042   0.0000   0.0000   0.0000   0.2704
  15.700   1.8390   0.04969   0.04438  -0.0959  0.3368  1.0000  -4.1215   0.0000   0.0000   0.0000   0.2698
  15.800   1.8379   0.05065   0.04536  -0.0952  0.3336  1.0000  -4.1531   0.0000   0.0000   0.0000   0.2692
  15.900   1.8409   0.05119   0.04586  -0.0947  0.3306  1.0000  -4.1988   0.0000   0.0000   0.0000   0.2686
  16.000   1.8337   0.05283   0.04759  -0.0939  0.3271  1.0000  -4.2091   0.0000   0.0000   0.0000   0.2681
  16.100   1.8292   0.05420   0.04900  -0.0932  0.3235  1.0000  -4.2288   0.0000   0.0000   0.0000   0.2676
  16.200   1.8281   0.05521   0.05001  -0.0926  0.3201  1.0000  -4.2605   0.0000   0.0000   0.0000   0.2670
  16.300   1.8269   0.05624   0.05105  -0.0921  0.3167  1.0000  -4.2917   0.0000   0.0000   0.0000   0.2665
  16.400   1.8202   0.05793   0.05281  -0.0914  0.3129  1.0000  -4.3032   0.0000   0.0000   0.0000   0.2660
  16.500   1.8167   0.05925   0.05415  -0.0909  0.3091  1.0000  -4.3264   0.0000   0.0000   0.0000   0.2656
  16.700   1.8092   0.06201   0.05695  -0.0898  0.3016  1.0000  -4.3703   0.0000   0.0000   0.0000   0.2646
  16.800   1.8041   0.06357   0.05854  -0.0893  0.2976  1.0000  -4.3875   0.0000   0.0000   0.0000   0.2642
  16.900   1.8025   0.06469   0.05963  -0.0888  0.2937  1.0000  -4.4173   0.0000   0.0000   0.0000   0.2637
  17.000   1.7956   0.06652   0.06152  -0.0883  0.2897  1.0000  -4.4275   0.0000   0.0000   0.0000   0.2634
  17.100   1.7901   0.06818   0.06321  -0.0879  0.2854  1.0000  -4.4426   0.0000   0.0000   0.0000   0.2630
  17.200   1.7873   0.06947   0.06447  -0.0875  0.2813  1.0000  -4.4680   0.0000   0.0000   0.0000   0.2626
  17.300   1.7801   0.07141   0.06647  -0.0871  0.2769  1.0000  -4.4764   0.0000   0.0000   0.0000   0.2623
  17.400   1.7743   0.07314   0.06821  -0.0867  0.2724  1.0000  -4.4902   0.0000   0.0000   0.0000   0.2619
  17.500   1.7702   0.07464   0.06970  -0.0864  0.2680  1.0000  -4.5104   0.0000   0.0000   0.0000   0.2616
  17.600   1.7628   0.07664   0.07174  -0.0861  0.2633  1.0000  -4.5175   0.0000   0.0000   0.0000   0.2613
  17.700   1.7571   0.07837   0.07346  -0.0858  0.2586  1.0000  -4.5315   0.0000   0.0000   0.0000   0.2610
  17.800   1.7510   0.08019   0.07530  -0.0855  0.2539  1.0000  -4.5435   0.0000   0.0000   0.0000   0.2608
  17.900   1.7442   0.08213   0.07726  -0.0853  0.2489  1.0000  -4.5524   0.0000   0.0000   0.0000   0.2606
  18.000   1.7383   0.08392   0.07902  -0.0850  0.2441  1.0000  -4.5652   0.0000   0.0000   0.0000   0.2603
  18.100   1.7312   0.08595   0.08109  -0.0849  0.2388  1.0000  -4.5724   0.0000   0.0000   0.0000   0.2601
  18.200   1.7245   0.08788   0.08299  -0.0847  0.2337  1.0000  -4.5823   0.0000   0.0000   0.0000   0.2599
  18.300   1.7177   0.08988   0.08501  -0.0846  0.2284  1.0000  -4.5910   0.0000   0.0000   0.0000   0.2598
  18.400   1.7103   0.09193   0.08704  -0.0844  0.2230  1.0000  -4.5976   0.0000   0.0000   0.0000   0.2597
  18.500   1.7034   0.09394   0.08906  -0.0844  0.2176  1.0000  -4.6056   0.0000   0.0000   0.0000   0.2595
  18.600   1.6958   0.09605   0.09116  -0.0843  0.2120  1.0000  -4.6106   0.0000   0.0000   0.0000   0.2595
  18.700   1.6888   0.09810   0.09320  -0.0843  0.2064  1.0000  -4.6175   0.0000   0.0000   0.0000   0.2594
  18.800   1.6810   0.10028   0.09537  -0.0843  0.2006  1.0000  -4.6210   0.0000   0.0000   0.0000   0.2594
  18.900   1.6738   0.10238   0.09745  -0.0844  0.1949  1.0000  -4.6265   0.0000   0.0000   0.0000   0.2593
  19.000   1.6659   0.10459   0.09965  -0.0845  0.1890  1.0000  -4.6288   0.0000   0.0000   0.0000   0.2593
  19.100   1.6587   0.10671   0.10176  -0.0846  0.1831  1.0000  -4.6334   0.0000   0.0000   0.0000   0.2594
  19.200   1.6506   0.10897   0.10400  -0.0847  0.1772  1.0000  -4.6341   0.0000   0.0000   0.0000   0.2594
  19.300   1.6433   0.11111   0.10612  -0.0849  0.1713  1.0000  -4.6377   0.0000   0.0000   0.0000   0.2595
  19.400   1.6352   0.11340   0.10837  -0.0851  0.1654  1.0000  -4.6376   0.0000   0.0000   0.0000   0.2596
  19.500   1.6282   0.11556   0.11052  -0.0854  0.1594  1.0000  -4.6412   0.0000   0.0000   0.0000   0.2597
  19.600   1.6201   0.11785   0.11277  -0.0857  0.1538  1.0000  -4.6402   0.0000   0.0000   0.0000   0.2599
  19.700   1.6134   0.12000   0.11491  -0.0860  0.1477  1.0000  -4.6440   0.0000   0.0000   0.0000   0.2600
  19.800   1.6054   0.12230   0.11716  -0.0864  0.1424  1.0000  -4.6426   0.0000   0.0000   0.0000   0.2603
  19.900   1.5992   0.12438   0.11924  -0.0867  0.1364  1.0000  -4.6478   0.0000   0.0000   0.0000   0.2604
  20.000   1.5917   0.12665   0.12147  -0.0872  0.1314  1.0000  -4.6470   0.0000   0.0000   0.0000   0.2607
  20.100   1.5859   0.12869   0.12350  -0.0876  0.1257  1.0000  -4.6528   0.0000   0.0000   0.0000   0.2609
  20.200   1.5789   0.13090   0.12567  -0.0881  0.1211  1.0000  -4.6533   0.0000   0.0000   0.0000   0.2612
  20.300   1.5734   0.13291   0.12767  -0.0885  0.1159  1.0000  -4.6597   0.0000   0.0000   0.0000   0.2614
  20.400   1.5672   0.13503   0.12974  -0.0891  0.1116  1.0000  -4.6627   0.0000   0.0000   0.0000   0.2617
  20.500   1.5624   0.13695   0.13166  -0.0896  0.1068  1.0000  -4.6712   0.0000   0.0000   0.0000   0.2619
  20.600   1.5564   0.13906   0.13372  -0.0901  0.1031  1.0000  -4.6742   0.0000   0.0000   0.0000   0.2622
  20.700   1.5531   0.14078   0.13544  -0.0906  0.0988  1.0000  -4.6882   0.0000   0.0000   0.0000   0.2624
  20.800   1.5481   0.14275   0.13737  -0.0912  0.0953  1.0000  -4.6950   0.0000   0.0000   0.0000   0.2627
  20.900   1.5445   0.14451   0.13913  -0.0918  0.0919  1.0000  -4.7074   0.0000   0.0000   0.0000   0.2629
  21.000   1.5414   0.14621   0.14082  -0.0923  0.0885  1.0000  -4.7215   0.0000   0.0000   0.0000   0.2631
  21.100   1.5372   0.14806   0.14262  -0.0929  0.0858  1.0000  -4.7309   0.0000   0.0000   0.0000   0.2634
  21.200   1.5353   0.14959   0.14416  -0.0934  0.0827  1.0000  -4.7498   0.0000   0.0000   0.0000   0.2635
  21.300   1.5328   0.15119   0.14576  -0.0940  0.0800  1.0000  -4.7661   0.0000   0.0000   0.0000   0.2637
  21.400   1.5296   0.15288   0.14740  -0.0946  0.0778  1.0000  -4.7795   0.0000   0.0000   0.0000   0.2640
  21.500   1.5287   0.15425   0.14878  -0.0951  0.0753  1.0000  -4.8022   0.0000   0.0000   0.0000   0.2641
  21.600   1.5272   0.15571   0.15025  -0.0957  0.0730  1.0000  -4.8233   0.0000   0.0000   0.0000   0.2642
  21.700   1.5251   0.15725   0.15176  -0.0963  0.0711  1.0000  -4.8424   0.0000   0.0000   0.0000   0.2644
  21.800   1.5236   0.15866   0.15314  -0.0968  0.0693  1.0000  -4.8643   0.0000   0.0000   0.0000   0.2645
  21.900   1.5237   0.15989   0.15440  -0.0973  0.0672  1.0000  -4.8928   0.0000   0.0000   0.0000   0.2645
  22.000   1.5230   0.16121   0.15573  -0.0979  0.0654  1.0000  -4.9183   0.0000   0.0000   0.0000   0.2646
  22.100   1.5218   0.16259   0.15708  -0.0984  0.0639  1.0000  -4.9417   0.0000   0.0000   0.0000   0.2648
  22.200   1.5214   0.16383   0.15829  -0.0990  0.0624  1.0000  -4.9681   0.0000   0.0000   0.0000   0.2648
  22.300   1.5218   0.16500   0.15950  -0.0995  0.0607  1.0000  -4.9979   0.0000   0.0000   0.0000   0.2649
  22.400   1.5220   0.16619   0.16070  -0.1000  0.0593  1.0000  -5.0272   0.0000   0.0000   0.0000   0.2649
  22.500   1.5220   0.16738   0.16188  -0.1006  0.0580  1.0000  -5.0563   0.0000   0.0000   0.0000   0.2650
  22.600   1.5223   0.16844   0.16289  -0.1010  0.0568  1.0000  -5.0876   0.0000   0.0000   0.0000   0.2649
  22.700   1.5232   0.16951   0.16398  -0.1015  0.0555  1.0000  -5.1193   0.0000   0.0000   0.0000   0.2649
  22.800   1.5239   0.17063   0.16513  -0.1020  0.0542  1.0000  -5.1501   0.0000   0.0000   0.0000   0.2649
  22.900   1.5245   0.17174   0.16626  -0.1026  0.0531  1.0000  -5.1815   0.0000   0.0000   0.0000   0.2650
  23.000   1.5251   0.17281   0.16732  -0.1031  0.0520  1.0000  -5.2140   0.0000   0.0000   0.0000   0.2650
  23.100   1.5265   0.17368   0.16814  -0.1036  0.0510  1.0000  -5.2511   0.0000   0.0000   0.0000   0.2649
  23.200   1.5280   0.17460   0.16907  -0.1040  0.0500  1.0000  -5.2862   0.0000   0.0000   0.0000   0.2648
  23.300   1.5290   0.17566   0.17017  -0.1045  0.0490  1.0000  -5.3184   0.0000   0.0000   0.0000   0.2648
  23.400   1.5302   0.17666   0.17120  -0.1051  0.0480  1.0000  -5.3524   0.0000   0.0000   0.0000   0.2647
  23.500   1.5315   0.17762   0.17216  -0.1056  0.0471  1.0000  -5.3887   0.0000   0.0000   0.0000   0.2647
  23.600   1.5330   0.17851   0.17304  -0.1061  0.0463  1.0000  -5.4283   0.0000   0.0000   0.0000   0.2646
  23.700   1.5361   0.17899   0.17345  -0.1063  0.0454  1.0000  -5.4785   0.0000   0.0000   0.0000   0.2643
  23.800   1.5374   0.17997   0.17448  -0.1068  0.0447  1.0000  -5.5136   0.0000   0.0000   0.0000   0.2642
  23.900   1.5384   0.18102   0.17557  -0.1074  0.0439  1.0000  -5.5472   0.0000   0.0000   0.0000   0.2642
  24.000   1.5398   0.18198   0.17656  -0.1080  0.0431  1.0000  -5.5839   0.0000   0.0000   0.0000   0.2642
  24.100   1.5414   0.18288   0.17747  -0.1085  0.0424  1.0000  -5.6229   0.0000   0.0000   0.0000   0.2641
  24.200   1.5432   0.18370   0.17828  -0.1090  0.0417  1.0000  -5.6647   0.0000   0.0000   0.0000   0.2640
  24.300   1.5458   0.18433   0.17888  -0.1093  0.0410  1.0000  -5.7121   0.0000   0.0000   0.0000   0.2638
  24.400   1.5503   0.18451   0.17901  -0.1094  0.0403  1.0000  -5.7709   0.0000   0.0000   0.0000   0.2633
  24.500   1.5507   0.18567   0.18024  -0.1101  0.0397  1.0000  -5.7997   0.0000   0.0000   0.0000   0.2634
  24.600   1.5519   0.18666   0.18129  -0.1107  0.0391  1.0000  -5.8340   0.0000   0.0000   0.0000   0.2634
  24.700   1.5535   0.18756   0.18222  -0.1113  0.0385  1.0000  -5.8718   0.0000   0.0000   0.0000   0.2633
  24.800   1.5553   0.18840   0.18307  -0.1118  0.0379  1.0000  -5.9124   0.0000   0.0000   0.0000   0.2632
  24.900   1.5575   0.18914   0.18381  -0.1123  0.0373  1.0000  -5.9563   0.0000   0.0000   0.0000   0.2631
  25.000   1.5604   0.18970   0.18435  -0.1126  0.0368  1.0000  -6.0061   0.0000   0.0000   0.0000   0.2629


