xflr5 v6.59

 Calculated polar for: S1210 12%

 1 1 Reynolds number fixed          Mach number fixed         

 xtrf =   1.000 (top)        1.000 (bottom)
 Mach =   0.000     Re =     0.250 e 6     Ncrit =   9.000

  alpha     CL        CD       CDp       Cm    Top Xtr Bot Xtr   Cpmin    Chinge    XCp    
 ------- -------- --------- --------- -------- ------- ------- -------- --------- ---------
 -10.000  -0.2420   0.13703   0.13391  -0.0291  1.0000  0.0208  -1.4085   0.0000   0.0000   0.0000   0.1127
  -9.900  -0.2419   0.13615   0.13304  -0.0288  1.0000  0.0208  -1.4142   0.0000   0.0000   0.0000   0.1137
  -9.800  -0.2420   0.13527   0.13218  -0.0286  1.0000  0.0208  -1.4200   0.0000   0.0000   0.0000   0.1150
  -9.700  -0.2422   0.13441   0.13134  -0.0283  1.0000  0.0208  -1.4259   0.0000   0.0000   0.0000   0.1164
  -9.600  -0.2369   0.13293   0.12986  -0.0296  0.9994  0.0208  -1.4301   0.0000   0.0000   0.0000   0.1080
  -9.500  -0.2298   0.13127   0.12820  -0.0314  0.9985  0.0208  -1.4339   0.0000   0.0000   0.0000   0.0957
  -9.400  -0.2227   0.12958   0.12651  -0.0332  0.9975  0.0208  -1.4379   0.0000   0.0000   0.0000   0.0828
  -9.300  -0.2158   0.12791   0.12484  -0.0350  0.9965  0.0209  -1.4425   0.0000   0.0000   0.0000   0.0693
  -9.200  -0.2089   0.12625   0.12318  -0.0367  0.9955  0.0209  -1.4489   0.0000   0.0000   0.0000   0.0549
  -9.100  -0.2116   0.12134   0.11831  -0.0381  0.9949  0.0216  -1.5733   0.0000   0.0000   0.0000   0.0505
  -9.000  -0.2051   0.11938   0.11634  -0.0392  0.9942  0.0220  -1.5533   0.0000   0.0000   0.0000   0.0390
  -8.900  -0.1971   0.11785   0.11481  -0.0401  0.9932  0.0223  -1.5113   0.0000   0.0000   0.0000   0.0262
  -8.800  -0.1885   0.11644   0.11341  -0.0409  0.9921  0.0227  -1.4644   0.0000   0.0000   0.0000   0.0119
  -8.700  -0.1802   0.11508   0.11205  -0.0419  0.9909  0.0230  -1.4251   0.0000   0.0000   0.0000  -0.0047
  -8.600  -0.1719   0.11374   0.11071  -0.0432  0.9898  0.0234  -1.3923   0.0000   0.0000   0.0000  -0.0241
  -8.500  -0.1636   0.11238   0.10936  -0.0446  0.9888  0.0238  -1.3646   0.0000   0.0000   0.0000  -0.0466
  -8.400  -0.1553   0.11101   0.10798  -0.0461  0.9880  0.0243  -1.3413   0.0000   0.0000   0.0000  -0.0726
  -8.300  -0.1479   0.10963   0.10661  -0.0475  0.9866  0.0247  -1.3232   0.0000   0.0000   0.0000  -0.0979
  -8.200  -0.1411   0.10826   0.10524  -0.0488  0.9846  0.0252  -1.3092   0.0000   0.0000   0.0000  -0.1237
  -8.100  -0.1337   0.10684   0.10383  -0.0504  0.9830  0.0258  -1.2978   0.0000   0.0000   0.0000  -0.1556
  -8.000  -0.1260   0.10538   0.10237  -0.0521  0.9816  0.0265  -1.2895   0.0000   0.0000   0.0000  -0.1939
  -7.900  -0.1179   0.10388   0.10086  -0.0539  0.9805  0.0273  -1.2846   0.0000   0.0000   0.0000  -0.2398
  -7.800  -0.1097   0.10233   0.09931  -0.0560  0.9795  0.0282  -1.2841   0.0000   0.0000   0.0000  -0.2953
  -7.700  -0.1042   0.10090   0.09789  -0.0573  0.9768  0.0292  -1.2899   0.0000   0.0000   0.0000  -0.3362
  -7.600  -0.0982   0.09941   0.09641  -0.0590  0.9742  0.0303  -1.3042   0.0000   0.0000   0.0000  -0.3893
  -7.500  -0.0916   0.09791   0.09490  -0.0618  0.9719  0.0319  -1.3434   0.0000   0.0000   0.0000  -0.4657
  -7.400  -0.0824   0.09684   0.09383  -0.0663  0.9696  0.0335  -1.4078   0.0000   0.0000   0.0000  -0.6000
  -7.200  -0.0699   0.09437   0.09137  -0.0700  0.9632  0.0341  -1.4498   0.0000   0.0000   0.0000  -0.8042
  -7.100  -0.0633   0.09284   0.08985  -0.0720  0.9602  0.0342  -1.4718   0.0000   0.0000   0.0000  -0.9457
  -7.000  -0.0556   0.09116   0.08817  -0.0743  0.9580  0.0343  -1.4936   0.0000   0.0000   0.0000  -1.1511
  -6.900  -0.0473   0.08938   0.08639  -0.0769  0.9563  0.0343  -1.5135   0.0000   0.0000   0.0000  -1.4510
  -6.800  -0.0512   0.08438   0.08143  -0.0781  0.9554  0.0361  -1.5899   0.0000   0.0000   0.0000  -1.3448
  -6.700  -0.0390   0.08351   0.08056  -0.0782  0.9548  0.0371  -1.4902   0.0000   0.0000   0.0000  -1.8498
  -6.600  -0.0363   0.08295   0.08001  -0.0771  0.9492  0.0378  -1.4442   0.0000   0.0000   0.0000  -1.9719
  -6.500  -0.0279   0.08206   0.07913  -0.0776  0.9462  0.0387  -1.3890   0.0000   0.0000   0.0000  -2.6506
  -6.400  -0.0189   0.08098   0.07804  -0.0787  0.9438  0.0398  -1.3457   0.0000   0.0000   0.0000  -4.1032
  -6.300  -0.0096   0.07974   0.07680  -0.0803  0.9418  0.0410  -1.3129   0.0000   0.0000   0.0000  -8.4755
  -6.200  -0.0002   0.07837   0.07544  -0.0822  0.9401  0.0423  -1.2887   0.0000   0.0000   0.0000  -449.4054
  -6.100   0.0094   0.07699   0.07403  -0.0846  0.9385  0.0449  -1.2745   0.0000   0.0000   0.0000   9.5631
  -6.000   0.0056   0.07637   0.07343  -0.0834  0.9294  0.0459  -1.2824   0.0000   0.0000   0.0000  15.7978
  -5.900   0.0115   0.07500   0.07206  -0.0867  0.9243  0.0486  -1.3192   0.0000   0.0000   0.0000   8.0534
  -5.800   0.0306   0.07359   0.07065  -0.0940  0.9208  0.0504  -1.3450   0.0000   0.0000   0.0000   3.4252
  -5.700   0.0450   0.07147   0.06852  -0.0989  0.9191  0.0506  -1.3499   0.0000   0.0000   0.0000   2.5139
  -5.600   0.0418   0.07066   0.06773  -0.0981  0.9085  0.0507  -1.3605   0.0000   0.0000   0.0000   2.6679
  -5.400   0.0435   0.06545   0.06256  -0.0973  0.9037  0.0539  -1.3234   0.0000   0.0000   0.0000   2.5540
  -5.300   0.0542   0.06477   0.06187  -0.0973  0.9019  0.0550  -1.2453   0.0000   0.0000   0.0000   2.0976
  -5.200   0.0660   0.06370   0.06079  -0.0984  0.9001  0.0560  -1.2043   0.0000   0.0000   0.0000   1.7836
  -5.100   0.0790   0.06237   0.05945  -0.1005  0.8984  0.0572  -1.1752   0.0000   0.0000   0.0000   1.5563
  -5.000   0.0810   0.06156   0.05866  -0.1002  0.8900  0.0579  -1.1675   0.0000   0.0000   0.0000   1.5210
  -4.900   0.0900   0.06028   0.05738  -0.1018  0.8847  0.0591  -1.1546   0.0000   0.0000   0.0000   1.4108
  -4.800   0.1033   0.05863   0.05571  -0.1049  0.8812  0.0609  -1.1447   0.0000   0.0000   0.0000   1.2903
  -4.700   0.1204   0.05652   0.05358  -0.1096  0.8782  0.0633  -1.1455   0.0000   0.0000   0.0000   1.1819
  -4.600   0.1782   0.04973   0.04668  -0.1358  0.8748  0.0697  -1.2966   0.0000   0.0000   0.0000   1.0267
  -4.500   0.1764   0.04464   0.04162  -0.1392  0.8675  0.0726  -1.3594   0.0000   0.0000   0.0000   1.0541
  -4.400   0.1840   0.04473   0.04171  -0.1374  0.8619  0.0733  -1.2995   0.0000   0.0000   0.0000   1.0104
  -4.300   0.1968   0.04449   0.04145  -0.1370  0.8577  0.0744  -1.2371   0.0000   0.0000   0.0000   0.9590
  -4.200   0.2145   0.04383   0.04077  -0.1385  0.8540  0.0760  -1.1781   0.0000   0.0000   0.0000   0.9072
  -4.100   0.2377   0.04259   0.03949  -0.1423  0.8506  0.0786  -1.1284   0.0000   0.0000   0.0000   0.8588
  -4.000   0.2700   0.03975   0.03658  -0.1514  0.8458  0.0841  -1.1157   0.0000   0.0000   0.0000   0.8195
  -3.800   0.4930   0.01657   0.01094  -0.2179  0.8495  0.0367  -1.6385   0.0000   0.0000   0.0000   0.6975
  -3.700   0.5140   0.01640   0.01067  -0.2196  0.8409  0.0355  -1.5803   0.0000   0.0000   0.0000   0.6825
  -3.600   0.5367   0.01628   0.01048  -0.2217  0.8315  0.0347  -1.5087   0.0000   0.0000   0.0000   0.6680
  -3.500   0.5689   0.01522   0.00925  -0.2263  0.8238  0.0336  -1.4668   0.0000   0.0000   0.0000   0.6523
  -3.400   0.5949   0.01442   0.00831  -0.2295  0.8141  0.0330  -1.4303   0.0000   0.0000   0.0000   0.6400
  -3.300   0.6170   0.01390   0.00768  -0.2317  0.8025  0.0325  -1.3904   0.0000   0.0000   0.0000   0.6296
  -3.200   0.6410   0.01347   0.00708  -0.2344  0.7914  0.0323  -1.3502   0.0000   0.0000   0.0000   0.6194
  -3.100   0.6584   0.01319   0.00671  -0.2357  0.7796  0.0321  -1.3105   0.0000   0.0000   0.0000   0.6114
  -3.000   0.6770   0.01296   0.00636  -0.2372  0.7676  0.0319  -1.2675   0.0000   0.0000   0.0000   0.6036
  -2.900   0.6957   0.01278   0.00605  -0.2388  0.7568  0.0320  -1.2230   0.0000   0.0000   0.0000   0.5962
  -2.800   0.7111   0.01264   0.00582  -0.2396  0.7459  0.0321  -1.1827   0.0000   0.0000   0.0000   0.5898
  -2.700   0.7270   0.01255   0.00559  -0.2406  0.7352  0.0324  -1.1409   0.0000   0.0000   0.0000   0.5836
  -2.600   0.7431   0.01251   0.00538  -0.2416  0.7255  0.0328  -1.0988   0.0000   0.0000   0.0000   0.5775
  -2.500   0.7568   0.01244   0.00521  -0.2421  0.7168  0.0334  -1.0611   0.0000   0.0000   0.0000   0.5721
  -2.400   0.7704   0.01240   0.00505  -0.2425  0.7079  0.0342  -1.0238   0.0000   0.0000   0.0000   0.5668
  -2.300   0.7862   0.01231   0.00479  -0.2434  0.6995  0.0393  -1.0079   0.0000   0.0000   0.0000   0.5614
  -2.200   0.8132   0.01176   0.00481  -0.2475  0.6910  0.2504  -1.0001   0.0000   0.0000   0.0000   0.5559
  -2.100   0.8225   0.01197   0.00496  -0.2469  0.6845  0.2677  -1.0067   0.0000   0.0000   0.0000   0.5516
  -2.000   0.8324   0.01215   0.00523  -0.2465  0.6776  0.2869  -1.0146   0.0000   0.0000   0.0000   0.5474
  -1.900   0.8426   0.01232   0.00535  -0.2461  0.6707  0.2938  -1.0225   0.0000   0.0000   0.0000   0.5432
  -1.800   0.8533   0.01249   0.00542  -0.2459  0.6641  0.2983  -1.0307   0.0000   0.0000   0.0000   0.5391
  -1.700   0.8643   0.01268   0.00550  -0.2458  0.6575  0.3017  -1.0391   0.0000   0.0000   0.0000   0.5351
  -1.600   0.8749   0.01278   0.00557  -0.2455  0.6525  0.3039  -1.0471   0.0000   0.0000   0.0000   0.5313
  -1.500   0.8867   0.01274   0.00555  -0.2457  0.6472  0.3118  -1.0558   0.0000   0.0000   0.0000   0.5275
  -1.400   0.8965   0.01288   0.00573  -0.2453  0.6418  0.3205  -1.0636   0.0000   0.0000   0.0000   0.5239
  -1.300   0.9059   0.01307   0.00593  -0.2448  0.6366  0.3281  -1.0712   0.0000   0.0000   0.0000   0.5203
  -1.200   0.9161   0.01324   0.00605  -0.2444  0.6317  0.3337  -1.0791   0.0000   0.0000   0.0000   0.5168
  -1.100   0.9326   0.01297   0.00554  -0.2457  0.6268  0.3195  -1.0901   0.0000   0.0000   0.0000   0.5133
  -1.000   0.9426   0.01323   0.00578  -0.2454  0.6218  0.3291  -1.0979   0.0000   0.0000   0.0000   0.5100
  -0.900   0.9521   0.01343   0.00600  -0.2449  0.6184  0.3377  -1.1054   0.0000   0.0000   0.0000   0.5067
  -0.800   0.9615   0.01363   0.00620  -0.2443  0.6151  0.3428  -1.1128   0.0000   0.0000   0.0000   0.5035
  -0.700   0.9736   0.01360   0.00617  -0.2446  0.6116  0.3481  -1.1216   0.0000   0.0000   0.0000   0.5004
  -0.600   0.9859   0.01357   0.00612  -0.2448  0.6080  0.3516  -1.1305   0.0000   0.0000   0.0000   0.4974
  -0.500   0.9976   0.01358   0.00613  -0.2449  0.6044  0.3543  -1.1395   0.0000   0.0000   0.0000   0.4944
  -0.400   1.0092   0.01363   0.00615  -0.2450  0.6009  0.3567  -1.1490   0.0000   0.0000   0.0000   0.4915
  -0.300   1.0208   0.01369   0.00617  -0.2450  0.5974  0.3589  -1.1586   0.0000   0.0000   0.0000   0.4886
  -0.200   1.0324   0.01376   0.00620  -0.2451  0.5940  0.3608  -1.1682   0.0000   0.0000   0.0000   0.4859
  -0.100   1.0443   0.01386   0.00624  -0.2452  0.5905  0.3628  -1.1779   0.0000   0.0000   0.0000   0.4831
   0.000   1.0567   0.01398   0.00630  -0.2455  0.5866  0.3648  -1.1878   0.0000   0.0000   0.0000   0.4805
   0.100   1.0690   0.01406   0.00636  -0.2457  0.5836  0.3669  -1.1975   0.0000   0.0000   0.0000   0.4779
   0.200   1.0803   0.01408   0.00639  -0.2457  0.5816  0.3690  -1.2069   0.0000   0.0000   0.0000   0.4753
   0.300   1.0918   0.01411   0.00643  -0.2457  0.5795  0.3712  -1.2163   0.0000   0.0000   0.0000   0.4728
   0.400   1.1033   0.01415   0.00646  -0.2458  0.5772  0.3735  -1.2257   0.0000   0.0000   0.0000   0.4704
   0.500   1.1148   0.01419   0.00650  -0.2458  0.5748  0.3757  -1.2352   0.0000   0.0000   0.0000   0.4680
   0.600   1.1263   0.01424   0.00654  -0.2459  0.5723  0.3780  -1.2447   0.0000   0.0000   0.0000   0.4656
   0.700   1.1377   0.01429   0.00658  -0.2459  0.5697  0.3802  -1.2542   0.0000   0.0000   0.0000   0.4633
   0.800   1.1491   0.01435   0.00662  -0.2459  0.5671  0.3823  -1.2637   0.0000   0.0000   0.0000   0.4610
   0.900   1.1605   0.01443   0.00667  -0.2459  0.5644  0.3841  -1.2743   0.0000   0.0000   0.0000   0.4588
   1.000   1.1718   0.01451   0.00672  -0.2459  0.5618  0.3857  -1.2848   0.0000   0.0000   0.0000   0.4566
   1.100   1.1842   0.01452   0.00671  -0.2462  0.5592  0.3908  -1.2960   0.0000   0.0000   0.0000   0.4545
   1.200   1.1963   0.01458   0.00676  -0.2464  0.5566  0.3955  -1.3069   0.0000   0.0000   0.0000   0.4524
   1.300   1.2083   0.01468   0.00685  -0.2466  0.5540  0.3997  -1.3211   0.0000   0.0000   0.0000   0.4504
   1.400   1.2205   0.01481   0.00703  -0.2468  0.5512  0.4037  -1.3356   0.0000   0.0000   0.0000   0.4484
   1.500   1.2333   0.01500   0.00720  -0.2472  0.5482  0.4080  -1.3504   0.0000   0.0000   0.0000   0.4464
   1.600   1.2447   0.01506   0.00728  -0.2472  0.5469  0.4122  -1.3644   0.0000   0.0000   0.0000   0.4445
   1.700   1.2559   0.01511   0.00735  -0.2472  0.5456  0.4166  -1.3783   0.0000   0.0000   0.0000   0.4426
   1.800   1.2670   0.01516   0.00742  -0.2471  0.5441  0.4209  -1.3922   0.0000   0.0000   0.0000   0.4407
   1.900   1.2781   0.01521   0.00749  -0.2471  0.5425  0.4250  -1.4061   0.0000   0.0000   0.0000   0.4388
   2.000   1.2891   0.01528   0.00756  -0.2470  0.5406  0.4285  -1.4200   0.0000   0.0000   0.0000   0.4369
   2.100   1.3008   0.01529   0.00761  -0.2472  0.5386  0.4359  -1.4344   0.0000   0.0000   0.0000   0.4352
   2.200   1.3123   0.01532   0.00769  -0.2472  0.5364  0.4432  -1.4487   0.0000   0.0000   0.0000   0.4334
   2.300   1.3234   0.01537   0.00777  -0.2472  0.5340  0.4500  -1.4660   0.0000   0.0000   0.0000   0.4316
   2.400   1.3345   0.01542   0.00784  -0.2471  0.5317  0.4572  -1.4833   0.0000   0.0000   0.0000   0.4299
   2.500   1.3455   0.01549   0.00791  -0.2471  0.5293  0.4645  -1.5023   0.0000   0.0000   0.0000   0.4282
   2.600   1.3564   0.01557   0.00797  -0.2470  0.5269  0.4712  -1.5215   0.0000   0.0000   0.0000   0.4265
   2.700   1.3677   0.01562   0.00804  -0.2470  0.5244  0.4806  -1.5444   0.0000   0.0000   0.0000   0.4249
   2.800   1.3791   0.01569   0.00813  -0.2471  0.5217  0.4911  -1.5694   0.0000   0.0000   0.0000   0.4233
   2.900   1.3905   0.01580   0.00824  -0.2471  0.5190  0.5014  -1.5944   0.0000   0.0000   0.0000   0.4217
   3.000   1.4022   0.01596   0.00837  -0.2472  0.5162  0.5117  -1.6197   0.0000   0.0000   0.0000   0.4201
   3.100   1.4144   0.01617   0.00856  -0.2475  0.5132  0.5216  -1.6457   0.0000   0.0000   0.0000   0.4186
   3.200   1.4268   0.01632   0.00877  -0.2478  0.5108  0.5351  -1.6719   0.0000   0.0000   0.0000   0.4172
   3.300   1.4377   0.01635   0.00887  -0.2477  0.5097  0.5479  -1.6967   0.0000   0.0000   0.0000   0.4156
   3.400   1.4486   0.01640   0.00897  -0.2476  0.5086  0.5605  -1.7216   0.0000   0.0000   0.0000   0.4142
   3.500   1.4597   0.01645   0.00908  -0.2476  0.5072  0.5743  -1.7468   0.0000   0.0000   0.0000   0.4127
   3.600   1.4707   0.01649   0.00920  -0.2476  0.5057  0.5898  -1.7721   0.0000   0.0000   0.0000   0.4112
   3.700   1.4815   0.01654   0.00930  -0.2475  0.5038  0.6056  -1.7973   0.0000   0.0000   0.0000   0.4098
   3.800   1.4923   0.01658   0.00940  -0.2473  0.5017  0.6220  -1.8225   0.0000   0.0000   0.0000   0.4083
   3.900   1.5029   0.01661   0.00949  -0.2472  0.4994  0.6407  -1.8478   0.0000   0.0000   0.0000   0.4069
   4.000   1.5134   0.01666   0.00967  -0.2470  0.4969  0.6592  -1.8731   0.0000   0.0000   0.0000   0.4055
   4.100   1.5237   0.01668   0.00976  -0.2468  0.4943  0.6807  -1.8983   0.0000   0.0000   0.0000   0.4041
   4.300   1.5437   0.01675   0.00991  -0.2462  0.4893  0.7285  -1.9524   0.0000   0.0000   0.0000   0.4013
   4.400   1.5532   0.01679   0.00999  -0.2458  0.4868  0.7559  -1.9800   0.0000   0.0000   0.0000   0.3999
   4.700   1.5736   0.01692   0.01022  -0.2428  0.4788  0.8875  -2.0518   0.0000   0.0000   0.0000   0.3954
   4.800   1.5804   0.01706   0.01035  -0.2418  0.4752  1.0000  -2.0755   0.0000   0.0000   0.0000   0.3940
   4.900   1.5904   0.01710   0.01041  -0.2416  0.4735  1.0000  -2.1043   0.0000   0.0000   0.0000   0.3927
   5.000   1.6002   0.01713   0.01046  -0.2413  0.4716  1.0000  -2.1328   0.0000   0.0000   0.0000   0.3915
   5.100   1.6099   0.01716   0.01052  -0.2410  0.4693  1.0000  -2.1614   0.0000   0.0000   0.0000   0.3902
   5.200   1.6197   0.01721   0.01059  -0.2407  0.4667  1.0000  -2.1903   0.0000   0.0000   0.0000   0.3890
   5.300   1.6297   0.01727   0.01066  -0.2404  0.4641  1.0000  -2.2193   0.0000   0.0000   0.0000   0.3877
   5.400   1.6396   0.01734   0.01074  -0.2402  0.4615  1.0000  -2.2486   0.0000   0.0000   0.0000   0.3865
   5.500   1.6496   0.01742   0.01082  -0.2399  0.4589  1.0000  -2.2780   0.0000   0.0000   0.0000   0.3853
   5.600   1.6596   0.01750   0.01090  -0.2397  0.4564  1.0000  -2.3075   0.0000   0.0000   0.0000   0.3841
   5.700   1.6696   0.01760   0.01099  -0.2394  0.4540  1.0000  -2.3371   0.0000   0.0000   0.0000   0.3829
   5.800   1.6795   0.01770   0.01108  -0.2392  0.4515  1.0000  -2.3668   0.0000   0.0000   0.0000   0.3818
   5.900   1.6895   0.01782   0.01118  -0.2389  0.4489  1.0000  -2.3966   0.0000   0.0000   0.0000   0.3806
   6.000   1.6995   0.01797   0.01129  -0.2387  0.4461  1.0000  -2.4266   0.0000   0.0000   0.0000   0.3795
   6.100   1.7099   0.01816   0.01144  -0.2386  0.4429  1.0000  -2.4571   0.0000   0.0000   0.0000   0.3784
   6.200   1.7212   0.01842   0.01167  -0.2387  0.4390  1.0000  -2.4888   0.0000   0.0000   0.0000   0.3773
   6.300   1.7300   0.01845   0.01176  -0.2382  0.4374  1.0000  -2.5174   0.0000   0.0000   0.0000   0.3762
   6.400   1.7389   0.01850   0.01185  -0.2377  0.4353  1.0000  -2.5462   0.0000   0.0000   0.0000   0.3750
   6.500   1.7478   0.01856   0.01195  -0.2373  0.4327  1.0000  -2.5750   0.0000   0.0000   0.0000   0.3739
   6.600   1.7566   0.01862   0.01218  -0.2368  0.4296  1.0000  -2.6038   0.0000   0.0000   0.0000   0.3728
   6.700   1.7654   0.01869   0.01229  -0.2363  0.4263  1.0000  -2.6327   0.0000   0.0000   0.0000   0.3716
   6.800   1.7741   0.01876   0.01238  -0.2358  0.4229  1.0000  -2.6617   0.0000   0.0000   0.0000   0.3705
   6.900   1.7828   0.01885   0.01247  -0.2353  0.4192  1.0000  -2.6907   0.0000   0.0000   0.0000   0.3694
   7.000   1.7912   0.01896   0.01257  -0.2347  0.4156  1.0000  -2.7196   0.0000   0.0000   0.0000   0.3683
   7.100   1.7996   0.01910   0.01268  -0.2341  0.4119  1.0000  -2.7483   0.0000   0.0000   0.0000   0.3672
   7.200   1.8080   0.01928   0.01282  -0.2336  0.4079  1.0000  -2.7771   0.0000   0.0000   0.0000   0.3661
   7.300   1.8172   0.01950   0.01301  -0.2333  0.4037  1.0000  -2.8069   0.0000   0.0000   0.0000   0.3651
   7.400   1.8253   0.01955   0.01314  -0.2327  0.4012  1.0000  -2.8353   0.0000   0.0000   0.0000   0.3640
   7.500   1.8335   0.01962   0.01328  -0.2321  0.3981  1.0000  -2.8639   0.0000   0.0000   0.0000   0.3629
   7.600   1.8417   0.01971   0.01341  -0.2315  0.3943  1.0000  -2.8926   0.0000   0.0000   0.0000   0.3619
   7.700   1.8496   0.01981   0.01354  -0.2308  0.3899  1.0000  -2.9209   0.0000   0.0000   0.0000   0.3608
   7.800   1.8570   0.01993   0.01368  -0.2301  0.3853  1.0000  -2.9486   0.0000   0.0000   0.0000   0.3597
   7.900   1.8640   0.02007   0.01381  -0.2293  0.3805  1.0000  -2.9758   0.0000   0.0000   0.0000   0.3586
   8.000   1.8704   0.02026   0.01396  -0.2283  0.3756  1.0000  -3.0020   0.0000   0.0000   0.0000   0.3575
   8.100   1.8762   0.02050   0.01416  -0.2273  0.3703  1.0000  -3.0273   0.0000   0.0000   0.0000   0.3564
   8.200   1.8839   0.02060   0.01433  -0.2267  0.3661  1.0000  -3.0555   0.0000   0.0000   0.0000   0.3554
   8.300   1.8911   0.02071   0.01450  -0.2259  0.3605  1.0000  -3.0829   0.0000   0.0000   0.0000   0.3543
   8.400   1.8970   0.02087   0.01468  -0.2249  0.3538  1.0000  -3.1084   0.0000   0.0000   0.0000   0.3533
   8.500   1.9009   0.02108   0.01487  -0.2235  0.3468  1.0000  -3.1308   0.0000   0.0000   0.0000   0.3521
   8.600   1.9033   0.02136   0.01510  -0.2218  0.3398  1.0000  -3.1510   0.0000   0.0000   0.0000   0.3509
   8.700   1.9078   0.02160   0.01534  -0.2206  0.3328  1.0000  -3.1742   0.0000   0.0000   0.0000   0.3498
   8.800   1.9127   0.02184   0.01558  -0.2194  0.3244  1.0000  -3.2003   0.0000   0.0000   0.0000   0.3487
   8.900   1.9154   0.02215   0.01586  -0.2179  0.3152  1.0000  -3.2241   0.0000   0.0000   0.0000   0.3475
   9.000   1.9160   0.02258   0.01622  -0.2160  0.3065  1.0000  -3.2440   0.0000   0.0000   0.0000   0.3463
   9.100   1.9197   0.02293   0.01655  -0.2147  0.2979  1.0000  -3.2693   0.0000   0.0000   0.0000   0.3453
   9.200   1.9223   0.02333   0.01693  -0.2132  0.2885  1.0000  -3.2928   0.0000   0.0000   0.0000   0.3441
   9.300   1.9231   0.02382   0.01742  -0.2115  0.2800  1.0000  -3.3130   0.0000   0.0000   0.0000   0.3430
   9.400   1.9234   0.02437   0.01791  -0.2096  0.2711  1.0000  -3.3322   0.0000   0.0000   0.0000   0.3419
   9.500   1.9257   0.02484   0.01837  -0.2082  0.2614  1.0000  -3.3550   0.0000   0.0000   0.0000   0.3408
   9.600   1.9251   0.02548   0.01893  -0.2063  0.2518  1.0000  -3.3728   0.0000   0.0000   0.0000   0.3397
   9.700   1.9234   0.02620   0.01958  -0.2043  0.2428  1.0000  -3.3882   0.0000   0.0000   0.0000   0.3385
   9.800   1.9258   0.02671   0.02009  -0.2030  0.2343  1.0000  -3.4111   0.0000   0.0000   0.0000   0.3375
   9.900   1.9255   0.02739   0.02072  -0.2013  0.2258  1.0000  -3.4293   0.0000   0.0000   0.0000   0.3364
  10.000   1.9233   0.02820   0.02145  -0.1993  0.2178  1.0000  -3.4439   0.0000   0.0000   0.0000   0.3354
  10.100   1.9246   0.02881   0.02206  -0.1979  0.2105  1.0000  -3.4647   0.0000   0.0000   0.0000   0.3344
  10.200   1.9257   0.02943   0.02267  -0.1965  0.2032  1.0000  -3.4854   0.0000   0.0000   0.0000   0.3334
  10.300   1.9248   0.03020   0.02339  -0.1948  0.1962  1.0000  -3.5024   0.0000   0.0000   0.0000   0.3324
  10.400   1.9223   0.03108   0.02422  -0.1930  0.1896  1.0000  -3.5236   0.0000   0.0000   0.0000   0.3314
  10.500   1.9232   0.03174   0.02489  -0.1917  0.1839  1.0000  -3.5884   0.0000   0.0000   0.0000   0.3304
  10.600   1.9247   0.03237   0.02552  -0.1905  0.1781  1.0000  -3.6566   0.0000   0.0000   0.0000   0.3295
  10.700   1.9244   0.03315   0.02629  -0.1890  0.1726  1.0000  -3.7159   0.0000   0.0000   0.0000   0.3286
  10.800   1.9226   0.03404   0.02716  -0.1875  0.1676  1.0000  -3.7681   0.0000   0.0000   0.0000   0.3277
  10.900   1.9204   0.03501   0.02810  -0.1860  0.1627  1.0000  -3.8175   0.0000   0.0000   0.0000   0.3268
  11.000   1.9217   0.03574   0.02885  -0.1849  0.1589  1.0000  -3.8854   0.0000   0.0000   0.0000   0.3260
  11.100   1.9237   0.03641   0.02955  -0.1839  0.1556  1.0000  -3.9577   0.0000   0.0000   0.0000   0.3251
  11.200   1.9248   0.03717   0.03033  -0.1828  0.1525  1.0000  -4.0257   0.0000   0.0000   0.0000   0.3243
  11.300   1.9253   0.03800   0.03118  -0.1817  0.1495  1.0000  -4.0906   0.0000   0.0000   0.0000   0.3235
  11.400   1.9247   0.03894   0.03213  -0.1806  0.1467  1.0000  -4.1496   0.0000   0.0000   0.0000   0.3227
  11.500   1.9235   0.03995   0.03314  -0.1794  0.1439  1.0000  -4.2060   0.0000   0.0000   0.0000   0.3220
  11.600   1.9220   0.04102   0.03421  -0.1783  0.1410  1.0000  -4.2601   0.0000   0.0000   0.0000   0.3213
  11.700   1.9197   0.04219   0.03539  -0.1772  0.1381  1.0000  -4.3094   0.0000   0.0000   0.0000   0.3206
  11.800   1.9196   0.04317   0.03640  -0.1763  0.1358  1.0000  -4.3713   0.0000   0.0000   0.0000   0.3199
  11.900   1.9221   0.04391   0.03720  -0.1756  0.1341  1.0000  -4.4493   0.0000   0.0000   0.0000   0.3192
  12.000   1.9236   0.04477   0.03810  -0.1749  0.1323  1.0000  -4.5210   0.0000   0.0000   0.0000   0.3185
  12.100   1.9244   0.04570   0.03908  -0.1741  0.1304  1.0000  -4.5893   0.0000   0.0000   0.0000   0.3179
  12.200   1.9248   0.04669   0.04010  -0.1734  0.1285  1.0000  -4.6557   0.0000   0.0000   0.0000   0.3172
  12.300   1.9246   0.04776   0.04121  -0.1727  0.1267  1.0000  -4.7185   0.0000   0.0000   0.0000   0.3166
  12.400   1.9237   0.04893   0.04240  -0.1720  0.1249  1.0000  -4.7774   0.0000   0.0000   0.0000   0.3161
  12.500   1.9227   0.05013   0.04363  -0.1713  0.1231  1.0000  -4.8353   0.0000   0.0000   0.0000   0.3155
  12.600   1.9212   0.05141   0.04493  -0.1706  0.1214  1.0000  -4.8908   0.0000   0.0000   0.0000   0.3150
  12.700   1.9191   0.05278   0.04633  -0.1700  0.1197  1.0000  -4.9419   0.0000   0.0000   0.0000   0.3146
  12.800   1.9168   0.05419   0.04775  -0.1694  0.1180  1.0000  -4.9923   0.0000   0.0000   0.0000   0.3142
  12.900   1.9141   0.05567   0.04926  -0.1689  0.1163  1.0000  -5.0396   0.0000   0.0000   0.0000   0.3137
  13.000   1.9109   0.05724   0.05086  -0.1683  0.1146  1.0000  -5.0833   0.0000   0.0000   0.0000   0.3134
  13.100   1.9102   0.05849   0.05215  -0.1679  0.1133  1.0000  -5.1433   0.0000   0.0000   0.0000   0.3129
  13.200   1.9118   0.05948   0.05320  -0.1675  0.1124  1.0000  -5.2178   0.0000   0.0000   0.0000   0.3124
  13.300   1.9125   0.06059   0.05437  -0.1672  0.1114  1.0000  -5.2868   0.0000   0.0000   0.0000   0.3120
  13.400   1.9128   0.06175   0.05559  -0.1668  0.1103  1.0000  -5.3539   0.0000   0.0000   0.0000   0.3116
  13.500   1.9130   0.06294   0.05683  -0.1665  0.1092  1.0000  -5.4201   0.0000   0.0000   0.0000   0.3111
  13.600   1.9130   0.06416   0.05810  -0.1662  0.1079  1.0000  -5.4850   0.0000   0.0000   0.0000   0.3107
  13.700   1.9124   0.06549   0.05948  -0.1659  0.1066  1.0000  -5.5455   0.0000   0.0000   0.0000   0.3104
  13.800   1.9112   0.06691   0.06101  -0.1657  0.1061  1.0000  -5.6096   0.0000   0.0000   0.0000   0.3101
  13.900   1.9102   0.06830   0.06246  -0.1654  0.1052  1.0000  -5.6715   0.0000   0.0000   0.0000   0.3097
  14.000   1.9091   0.06972   0.06391  -0.1652  0.1040  1.0000  -5.7315   0.0000   0.0000   0.0000   0.3094
  14.100   1.9076   0.07122   0.06544  -0.1650  0.1028  1.0000  -5.7874   0.0000   0.0000   0.0000   0.3092
  14.200   1.9053   0.07285   0.06711  -0.1649  0.1016  1.0000  -5.8378   0.0000   0.0000   0.0000   0.3090
  14.300   1.9030   0.07449   0.06878  -0.1648  0.1003  1.0000  -5.8877   0.0000   0.0000   0.0000   0.3088
  14.400   1.9006   0.07616   0.07046  -0.1647  0.0989  1.0000  -5.9366   0.0000   0.0000   0.0000   0.3086
  14.500   1.8977   0.07790   0.07223  -0.1647  0.0975  1.0000  -5.9816   0.0000   0.0000   0.0000   0.3084
  14.600   1.8938   0.07982   0.07417  -0.1647  0.0961  1.0000  -6.0193   0.0000   0.0000   0.0000   0.3084
  14.700   1.8901   0.08168   0.07606  -0.1647  0.0945  1.0000  -6.0579   0.0000   0.0000   0.0000   0.3083
  14.800   1.8868   0.08347   0.07786  -0.1647  0.0929  1.0000  -6.0986   0.0000   0.0000   0.0000   0.3082
  14.900   1.8887   0.08457   0.07903  -0.1647  0.0920  1.0000  -6.1748   0.0000   0.0000   0.0000   0.3078
  15.000   1.8901   0.08574   0.08026  -0.1647  0.0907  1.0000  -6.2473   0.0000   0.0000   0.0000   0.3075
  15.100   1.8904   0.08710   0.08169  -0.1648  0.0889  1.0000  -6.3116   0.0000   0.0000   0.0000   0.3073
  15.200   1.8893   0.08867   0.08329  -0.1650  0.0865  1.0000  -6.3666   0.0000   0.0000   0.0000   0.3072
  15.300   1.8869   0.09043   0.08506  -0.1652  0.0838  1.0000  -6.4122   0.0000   0.0000   0.0000   0.3072
  15.400   1.8833   0.09235   0.08698  -0.1655  0.0811  1.0000  -6.4488   0.0000   0.0000   0.0000   0.3072
  15.500   1.8787   0.09444   0.08906  -0.1658  0.0787  1.0000  -6.4779   0.0000   0.0000   0.0000   0.3073
  15.600   1.8731   0.09670   0.09134  -0.1662  0.0768  1.0000  -6.4989   0.0000   0.0000   0.0000   0.3076
  15.700   1.8685   0.09881   0.09347  -0.1666  0.0749  1.0000  -6.5252   0.0000   0.0000   0.0000   0.3077
  15.800   1.8679   0.10027   0.09497  -0.1667  0.0732  1.0000  -6.5781   0.0000   0.0000   0.0000   0.3076
  15.900   1.8689   0.10149   0.09624  -0.1669  0.0712  1.0000  -6.6408   0.0000   0.0000   0.0000   0.3073
  16.000   1.8685   0.10292   0.09772  -0.1670  0.0687  1.0000  -6.6930   0.0000   0.0000   0.0000   0.3072
  16.100   1.8667   0.10457   0.09939  -0.1673  0.0660  1.0000  -6.7350   0.0000   0.0000   0.0000   0.3072
  16.200   1.8628   0.10659   0.10142  -0.1678  0.0636  1.0000  -6.7622   0.0000   0.0000   0.0000   0.3073
  16.300   1.8583   0.10870   0.10355  -0.1683  0.0612  1.0000  -6.7842   0.0000   0.0000   0.0000   0.3076
  16.400   1.8530   0.11094   0.10578  -0.1689  0.0586  1.0000  -6.8002   0.0000   0.0000   0.0000   0.3079
  16.500   1.8502   0.11274   0.10759  -0.1693  0.0549  1.0000  -6.8308   0.0000   0.0000   0.0000   0.3080
  16.600   1.8461   0.11474   0.10957  -0.1699  0.0488  1.0000  -6.8521   0.0000   0.0000   0.0000   0.3082
  16.700   1.8389   0.11730   0.11210  -0.1707  0.0441  1.0000  -6.8533   0.0000   0.0000   0.0000   0.3087
  16.800   1.8320   0.11982   0.11461  -0.1716  0.0401  1.0000  -6.8544   0.0000   0.0000   0.0000   0.3093
  16.900   1.8252   0.12229   0.11706  -0.1724  0.0350  1.0000  -6.8548   0.0000   0.0000   0.0000   0.3098
  17.000   1.8176   0.12487   0.11961  -0.1733  0.0305  1.0000  -6.8503   0.0000   0.0000   0.0000   0.3105
  17.100   1.8107   0.12733   0.12205  -0.1742  0.0258  1.0000  -6.8475   0.0000   0.0000   0.0000   0.3111
  17.200   1.8027   0.12990   0.12461  -0.1753  0.0220  1.0000  -6.8372   0.0000   0.0000   0.0000   0.3118
  17.300   1.7951   0.13244   0.12714  -0.1764  0.0186  1.0000  -6.8273   0.0000   0.0000   0.0000   0.3126
  17.400   1.7869   0.13505   0.12974  -0.1775  0.0144  1.0000  -6.8146   0.0000   0.0000   0.0000   0.3135
  17.500   1.7797   0.13755   0.13224  -0.1787  0.0118  1.0000  -6.8060   0.0000   0.0000   0.0000   0.3142
  17.600   1.7741   0.13984   0.13455  -0.1797  0.0100  1.0000  -6.8059   0.0000   0.0000   0.0000   0.3149
  17.700   1.7688   0.14216   0.13690  -0.1807  0.0088  1.0000  -6.8069   0.0000   0.0000   0.0000   0.3155
  17.800   1.7630   0.14468   0.13946  -0.1819  0.0079  1.0000  -6.8035   0.0000   0.0000   0.0000   0.3163
  17.900   1.7581   0.14705   0.14187  -0.1830  0.0070  1.0000  -6.8039   0.0000   0.0000   0.0000   0.3169
  18.000   1.7547   0.14915   0.14403  -0.1840  0.0063  1.0000  -6.8126   0.0000   0.0000   0.0000   0.3174
  18.100   1.7520   0.15113   0.14606  -0.1849  0.0060  1.0000  -6.8305   0.0000   0.0000   0.0000   0.3178


