xflr5 v6.59

 Calculated polar for: S1223

 1 1 Reynolds number fixed          Mach number fixed         

 xtrf =   1.000 (top)        1.000 (bottom)
 Mach =   0.000     Re =     0.250 e 6     Ncrit =   9.000

  alpha     CL        CD       CDp       Cm    Top Xtr Bot Xtr   Cpmin    Chinge    XCp    
 ------- -------- --------- --------- -------- ------- ------- -------- --------- ---------
  -9.980  -0.1681   0.14332   0.14017  -0.0308  0.9929  0.0187  -1.2177   0.0000   0.0000   0.0000   0.0401
  -9.970  -0.1673   0.14317   0.14002  -0.0309  0.9927  0.0187  -1.2164   0.0000   0.0000   0.0000   0.0383
  -9.960  -0.1666   0.14302   0.13987  -0.0310  0.9926  0.0187  -1.2150   0.0000   0.0000   0.0000   0.0365
  -9.950  -0.1658   0.14288   0.13973  -0.0312  0.9924  0.0187  -1.2137   0.0000   0.0000   0.0000   0.0347
  -9.940  -0.1650   0.14273   0.13958  -0.0313  0.9923  0.0187  -1.2123   0.0000   0.0000   0.0000   0.0329
  -9.930  -0.1643   0.14259   0.13944  -0.0315  0.9922  0.0187  -1.2110   0.0000   0.0000   0.0000   0.0310
  -9.920  -0.1635   0.14245   0.13930  -0.0316  0.9921  0.0187  -1.2097   0.0000   0.0000   0.0000   0.0292
  -9.910  -0.1627   0.14230   0.13916  -0.0317  0.9919  0.0188  -1.2083   0.0000   0.0000   0.0000   0.0273
  -9.900  -0.1620   0.14216   0.13901  -0.0319  0.9918  0.0188  -1.2070   0.0000   0.0000   0.0000   0.0254
  -9.890  -0.1612   0.14202   0.13887  -0.0320  0.9917  0.0188  -1.2057   0.0000   0.0000   0.0000   0.0234
  -9.880  -0.1604   0.14188   0.13873  -0.0322  0.9916  0.0188  -1.2044   0.0000   0.0000   0.0000   0.0215
  -9.870  -0.1597   0.14174   0.13859  -0.0323  0.9915  0.0188  -1.2031   0.0000   0.0000   0.0000   0.0195
  -9.860  -0.1589   0.14160   0.13845  -0.0324  0.9913  0.0188  -1.2018   0.0000   0.0000   0.0000   0.0175
  -9.850  -0.1582   0.14146   0.13831  -0.0326  0.9912  0.0188  -1.2005   0.0000   0.0000   0.0000   0.0155
  -9.840  -0.1574   0.14132   0.13817  -0.0327  0.9911  0.0188  -1.1992   0.0000   0.0000   0.0000   0.0135
  -9.830  -0.1566   0.14118   0.13801  -0.0329  0.9910  0.0188  -1.1978   0.0000   0.0000   0.0000   0.0114
  -9.820  -0.1559   0.14104   0.13787  -0.0330  0.9909  0.0189  -1.1966   0.0000   0.0000   0.0000   0.0093
  -9.810  -0.1551   0.14090   0.13773  -0.0332  0.9908  0.0189  -1.1953   0.0000   0.0000   0.0000   0.0072
  -9.800  -0.1543   0.14076   0.13759  -0.0333  0.9907  0.0189  -1.1941   0.0000   0.0000   0.0000   0.0051
  -9.790  -0.1535   0.14062   0.13745  -0.0334  0.9906  0.0189  -1.1928   0.0000   0.0000   0.0000   0.0029
  -9.780  -0.1528   0.14048   0.13731  -0.0336  0.9905  0.0189  -1.1916   0.0000   0.0000   0.0000   0.0007
  -9.770  -0.1520   0.14035   0.13718  -0.0337  0.9904  0.0189  -1.1903   0.0000   0.0000   0.0000  -0.0015
  -9.760  -0.1512   0.14021   0.13704  -0.0339  0.9903  0.0189  -1.1891   0.0000   0.0000   0.0000  -0.0038
  -9.750  -0.1505   0.14007   0.13690  -0.0340  0.9902  0.0189  -1.1879   0.0000   0.0000   0.0000  -0.0060
  -9.740  -0.1497   0.13993   0.13676  -0.0342  0.9901  0.0189  -1.1867   0.0000   0.0000   0.0000  -0.0084
  -9.730  -0.1489   0.13980   0.13663  -0.0343  0.9900  0.0189  -1.1854   0.0000   0.0000   0.0000  -0.0107
  -9.720  -0.1481   0.13966   0.13649  -0.0345  0.9899  0.0190  -1.1842   0.0000   0.0000   0.0000  -0.0131
  -9.710  -0.1473   0.13952   0.13635  -0.0346  0.9898  0.0190  -1.1830   0.0000   0.0000   0.0000  -0.0155
  -9.700  -0.1466   0.13938   0.13621  -0.0348  0.9897  0.0190  -1.1818   0.0000   0.0000   0.0000  -0.0179
  -9.690  -0.1458   0.13925   0.13608  -0.0349  0.9896  0.0190  -1.1806   0.0000   0.0000   0.0000  -0.0204
  -9.680  -0.1450   0.13911   0.13594  -0.0351  0.9896  0.0190  -1.1793   0.0000   0.0000   0.0000  -0.0230
  -9.670  -0.1442   0.13897   0.13580  -0.0352  0.9895  0.0190  -1.1781   0.0000   0.0000   0.0000  -0.0255
  -9.660  -0.1434   0.13884   0.13567  -0.0354  0.9894  0.0190  -1.1769   0.0000   0.0000   0.0000  -0.0281
  -9.650  -0.1426   0.13870   0.13553  -0.0355  0.9893  0.0190  -1.1757   0.0000   0.0000   0.0000  -0.0308
  -9.640  -0.1418   0.13856   0.13539  -0.0357  0.9892  0.0190  -1.1745   0.0000   0.0000   0.0000  -0.0335
  -9.630  -0.1410   0.13843   0.13526  -0.0358  0.9892  0.0190  -1.1733   0.0000   0.0000   0.0000  -0.0362
  -9.620  -0.1402   0.13829   0.13512  -0.0360  0.9891  0.0191  -1.1721   0.0000   0.0000   0.0000  -0.0389
  -9.610  -0.1394   0.13815   0.13498  -0.0362  0.9890  0.0191  -1.1709   0.0000   0.0000   0.0000  -0.0418
  -9.600  -0.1385   0.13802   0.13485  -0.0363  0.9889  0.0191  -1.1697   0.0000   0.0000   0.0000  -0.0446
  -9.590  -0.1377   0.13788   0.13471  -0.0365  0.9889  0.0191  -1.1686   0.0000   0.0000   0.0000  -0.0475
  -9.580  -0.1369   0.13775   0.13458  -0.0366  0.9888  0.0191  -1.1674   0.0000   0.0000   0.0000  -0.0504
  -9.570  -0.1361   0.13761   0.13444  -0.0368  0.9887  0.0191  -1.1662   0.0000   0.0000   0.0000  -0.0534
  -9.560  -0.1353   0.13748   0.13430  -0.0370  0.9887  0.0191  -1.1650   0.0000   0.0000   0.0000  -0.0565
  -9.550  -0.1345   0.13734   0.13417  -0.0371  0.9886  0.0191  -1.1638   0.0000   0.0000   0.0000  -0.0595
  -9.540  -0.1336   0.13721   0.13403  -0.0373  0.9885  0.0191  -1.1626   0.0000   0.0000   0.0000  -0.0627
  -9.530  -0.1328   0.13707   0.13390  -0.0374  0.9885  0.0192  -1.1615   0.0000   0.0000   0.0000  -0.0659
  -9.520  -0.1320   0.13694   0.13376  -0.0376  0.9884  0.0192  -1.1603   0.0000   0.0000   0.0000  -0.0691
  -9.510  -0.1311   0.13680   0.13363  -0.0378  0.9883  0.0192  -1.1591   0.0000   0.0000   0.0000  -0.0724
  -9.500  -0.1303   0.13667   0.13349  -0.0379  0.9883  0.0192  -1.1580   0.0000   0.0000   0.0000  -0.0757
  -9.490  -0.1297   0.13653   0.13335  -0.0380  0.9881  0.0192  -1.1570   0.0000   0.0000   0.0000  -0.0779
  -9.480  -0.1293   0.13638   0.13321  -0.0381  0.9878  0.0192  -1.1561   0.0000   0.0000   0.0000  -0.0794
  -9.470  -0.1287   0.13625   0.13308  -0.0382  0.9876  0.0192  -1.1552   0.0000   0.0000   0.0000  -0.0813
  -9.460  -0.1282   0.13611   0.13294  -0.0382  0.9874  0.0192  -1.1543   0.0000   0.0000   0.0000  -0.0834
  -9.450  -0.1276   0.13597   0.13281  -0.0383  0.9872  0.0192  -1.1533   0.0000   0.0000   0.0000  -0.0856
  -9.440  -0.1270   0.13584   0.13267  -0.0384  0.9870  0.0192  -1.1524   0.0000   0.0000   0.0000  -0.0879
  -9.430  -0.1264   0.13571   0.13254  -0.0385  0.9868  0.0193  -1.1515   0.0000   0.0000   0.0000  -0.0903
  -9.420  -0.1258   0.13557   0.13241  -0.0386  0.9866  0.0193  -1.1505   0.0000   0.0000   0.0000  -0.0928
  -9.410  -0.1251   0.13544   0.13227  -0.0387  0.9865  0.0193  -1.1495   0.0000   0.0000   0.0000  -0.0953
  -9.400  -0.1245   0.13531   0.13214  -0.0389  0.9863  0.0193  -1.1486   0.0000   0.0000   0.0000  -0.0980
  -9.390  -0.1238   0.13518   0.13201  -0.0390  0.9861  0.0193  -1.1476   0.0000   0.0000   0.0000  -0.1007
  -9.380  -0.1232   0.13504   0.13188  -0.0391  0.9860  0.0193  -1.1467   0.0000   0.0000   0.0000  -0.1034
  -9.370  -0.1225   0.13491   0.13174  -0.0392  0.9858  0.0193  -1.1457   0.0000   0.0000   0.0000  -0.1063
  -9.360  -0.1218   0.13478   0.13161  -0.0393  0.9857  0.0193  -1.1447   0.0000   0.0000   0.0000  -0.1092
  -9.350  -0.1212   0.13465   0.13148  -0.0394  0.9855  0.0193  -1.1438   0.0000   0.0000   0.0000  -0.1122
  -9.340  -0.1205   0.13451   0.13135  -0.0396  0.9854  0.0194  -1.1428   0.0000   0.0000   0.0000  -0.1152
  -9.330  -0.1198   0.13438   0.13121  -0.0397  0.9853  0.0194  -1.1418   0.0000   0.0000   0.0000  -0.1183
  -9.320  -0.1191   0.13425   0.13108  -0.0398  0.9851  0.0194  -1.1409   0.0000   0.0000   0.0000  -0.1215
  -9.310  -0.1184   0.13412   0.13095  -0.0399  0.9850  0.0194  -1.1399   0.0000   0.0000   0.0000  -0.1248
  -9.300  -0.1177   0.13398   0.13082  -0.0401  0.9849  0.0194  -1.1389   0.0000   0.0000   0.0000  -0.1281
  -9.290  -0.1170   0.13385   0.13068  -0.0402  0.9847  0.0194  -1.1379   0.0000   0.0000   0.0000  -0.1315
  -9.280  -0.1163   0.13372   0.13055  -0.0403  0.9846  0.0194  -1.1370   0.0000   0.0000   0.0000  -0.1350
  -9.270  -0.1156   0.13358   0.13042  -0.0405  0.9845  0.0194  -1.1360   0.0000   0.0000   0.0000  -0.1385
  -9.260  -0.1148   0.13345   0.13029  -0.0406  0.9843  0.0194  -1.1350   0.0000   0.0000   0.0000  -0.1421
  -9.250  -0.1141   0.13332   0.13015  -0.0407  0.9842  0.0195  -1.1341   0.0000   0.0000   0.0000  -0.1458
  -9.240  -0.1134   0.13318   0.13002  -0.0409  0.9841  0.0195  -1.1331   0.0000   0.0000   0.0000  -0.1495
  -9.230  -0.1126   0.13305   0.12989  -0.0410  0.9840  0.0195  -1.1321   0.0000   0.0000   0.0000  -0.1534
  -9.220  -0.1119   0.13292   0.12975  -0.0411  0.9839  0.0195  -1.1311   0.0000   0.0000   0.0000  -0.1573
  -9.210  -0.1112   0.13278   0.12962  -0.0413  0.9837  0.0195  -1.1302   0.0000   0.0000   0.0000  -0.1612
  -9.200  -0.1104   0.13265   0.12949  -0.0414  0.9836  0.0195  -1.1292   0.0000   0.0000   0.0000  -0.1653
  -9.190  -0.1097   0.13252   0.12935  -0.0416  0.9835  0.0195  -1.1282   0.0000   0.0000   0.0000  -0.1695
  -9.180  -0.1089   0.13238   0.12922  -0.0417  0.9834  0.0195  -1.1272   0.0000   0.0000   0.0000  -0.1737
  -9.170  -0.1081   0.13225   0.12908  -0.0419  0.9833  0.0195  -1.1263   0.0000   0.0000   0.0000  -0.1780
  -9.160  -0.1074   0.13212   0.12895  -0.0420  0.9832  0.0196  -1.1253   0.0000   0.0000   0.0000  -0.1824
  -9.150  -0.1066   0.13198   0.12882  -0.0421  0.9831  0.0196  -1.1243   0.0000   0.0000   0.0000  -0.1869
  -9.140  -0.1058   0.13185   0.12868  -0.0423  0.9830  0.0196  -1.1234   0.0000   0.0000   0.0000  -0.1914
  -9.130  -0.1051   0.13171   0.12855  -0.0424  0.9829  0.0196  -1.1224   0.0000   0.0000   0.0000  -0.1961
  -9.120  -0.1043   0.13158   0.12841  -0.0426  0.9828  0.0196  -1.1214   0.0000   0.0000   0.0000  -0.2009
  -9.110  -0.1035   0.13144   0.12828  -0.0427  0.9827  0.0196  -1.1205   0.0000   0.0000   0.0000  -0.2057
  -9.100  -0.1027   0.13131   0.12814  -0.0429  0.9826  0.0196  -1.1195   0.0000   0.0000   0.0000  -0.2107
  -9.090  -0.1019   0.13117   0.12801  -0.0431  0.9825  0.0196  -1.1185   0.0000   0.0000   0.0000  -0.2158
  -9.080  -0.1011   0.13104   0.12788  -0.0432  0.9824  0.0197  -1.1176   0.0000   0.0000   0.0000  -0.2209
  -9.070  -0.1003   0.13090   0.12774  -0.0434  0.9823  0.0197  -1.1166   0.0000   0.0000   0.0000  -0.2262
  -9.060  -0.0995   0.13077   0.12761  -0.0435  0.9823  0.0197  -1.1156   0.0000   0.0000   0.0000  -0.2316
  -9.050  -0.0987   0.13064   0.12747  -0.0437  0.9822  0.0197  -1.1147   0.0000   0.0000   0.0000  -0.2371
  -9.040  -0.0979   0.13050   0.12734  -0.0438  0.9821  0.0197  -1.1137   0.0000   0.0000   0.0000  -0.2427
  -9.030  -0.0971   0.13037   0.12720  -0.0440  0.9820  0.0197  -1.1127   0.0000   0.0000   0.0000  -0.2484
  -9.020  -0.0963   0.13023   0.12707  -0.0442  0.9819  0.0197  -1.1118   0.0000   0.0000   0.0000  -0.2542
  -9.010  -0.0955   0.13010   0.12693  -0.0443  0.9818  0.0197  -1.1108   0.0000   0.0000   0.0000  -0.2602
  -9.000  -0.0947   0.12996   0.12680  -0.0445  0.9818  0.0198  -1.1099   0.0000   0.0000   0.0000  -0.2663
  -8.990  -0.0939   0.12983   0.12666  -0.0446  0.9817  0.0198  -1.1089   0.0000   0.0000   0.0000  -0.2725
  -8.980  -0.0931   0.12969   0.12653  -0.0448  0.9816  0.0198  -1.1080   0.0000   0.0000   0.0000  -0.2789
  -8.970  -0.0922   0.12956   0.12639  -0.0450  0.9815  0.0198  -1.1070   0.0000   0.0000   0.0000  -0.2853
  -8.960  -0.0914   0.12942   0.12626  -0.0451  0.9815  0.0198  -1.1061   0.0000   0.0000   0.0000  -0.2920
  -8.950  -0.0906   0.12929   0.12612  -0.0453  0.9814  0.0198  -1.1051   0.0000   0.0000   0.0000  -0.2988
  -8.940  -0.0897   0.12915   0.12599  -0.0455  0.9813  0.0198  -1.1042   0.0000   0.0000   0.0000  -0.3057
  -8.930  -0.0889   0.12902   0.12585  -0.0456  0.9812  0.0198  -1.1032   0.0000   0.0000   0.0000  -0.3128
  -8.920  -0.0881   0.12888   0.12572  -0.0458  0.9812  0.0199  -1.1023   0.0000   0.0000   0.0000  -0.3200
  -8.910  -0.0872   0.12875   0.12558  -0.0460  0.9811  0.0199  -1.1013   0.0000   0.0000   0.0000  -0.3274
  -8.900  -0.0864   0.12861   0.12545  -0.0461  0.9810  0.0199  -1.1004   0.0000   0.0000   0.0000  -0.3350
  -8.890  -0.0855   0.12848   0.12531  -0.0463  0.9810  0.0199  -1.0994   0.0000   0.0000   0.0000  -0.3428
  -8.880  -0.0847   0.12834   0.12518  -0.0465  0.9809  0.0199  -1.0985   0.0000   0.0000   0.0000  -0.3507
  -8.870  -0.0838   0.12821   0.12504  -0.0466  0.9808  0.0199  -1.0976   0.0000   0.0000   0.0000  -0.3588
  -8.860  -0.0830   0.12807   0.12491  -0.0468  0.9808  0.0199  -1.0966   0.0000   0.0000   0.0000  -0.3671
  -8.850  -0.0828   0.12796   0.12479  -0.0468  0.9804  0.0199  -1.0962   0.0000   0.0000   0.0000  -0.3680
  -8.840  -0.0828   0.12785   0.12468  -0.0467  0.9800  0.0200  -1.0959   0.0000   0.0000   0.0000  -0.3678
  -8.830  -0.0825   0.12773   0.12457  -0.0467  0.9797  0.0200  -1.0954   0.0000   0.0000   0.0000  -0.3699
  -8.820  -0.0821   0.12761   0.12445  -0.0468  0.9794  0.0200  -1.0949   0.0000   0.0000   0.0000  -0.3732
  -8.810  -0.0816   0.12749   0.12433  -0.0468  0.9792  0.0200  -1.0942   0.0000   0.0000   0.0000  -0.3771
  -8.800  -0.0812   0.12737   0.12421  -0.0469  0.9790  0.0200  -1.0936   0.0000   0.0000   0.0000  -0.3816
  -8.790  -0.0806   0.12724   0.12408  -0.0470  0.9787  0.0200  -1.0930   0.0000   0.0000   0.0000  -0.3865
  -8.780  -0.0801   0.12712   0.12396  -0.0471  0.9785  0.0200  -1.0923   0.0000   0.0000   0.0000  -0.3918
  -8.770  -0.0795   0.12699   0.12384  -0.0471  0.9783  0.0200  -1.0916   0.0000   0.0000   0.0000  -0.3974
  -8.760  -0.0790   0.12687   0.12371  -0.0472  0.9781  0.0200  -1.0909   0.0000   0.0000   0.0000  -0.4032
  -8.750  -0.0784   0.12674   0.12359  -0.0473  0.9779  0.0201  -1.0902   0.0000   0.0000   0.0000  -0.4094
  -8.740  -0.0778   0.12662   0.12346  -0.0474  0.9777  0.0201  -1.0895   0.0000   0.0000   0.0000  -0.4158
  -8.730  -0.0771   0.12649   0.12334  -0.0475  0.9775  0.0201  -1.0888   0.0000   0.0000   0.0000  -0.4225
  -8.720  -0.0765   0.12636   0.12321  -0.0477  0.9774  0.0201  -1.0880   0.0000   0.0000   0.0000  -0.4295
  -8.710  -0.0759   0.12624   0.12308  -0.0478  0.9772  0.0201  -1.0873   0.0000   0.0000   0.0000  -0.4367
  -8.700  -0.0752   0.12611   0.12295  -0.0479  0.9770  0.0201  -1.0866   0.0000   0.0000   0.0000  -0.4442
  -8.690  -0.0745   0.12598   0.12283  -0.0480  0.9769  0.0201  -1.0858   0.0000   0.0000   0.0000  -0.4519
  -8.680  -0.0739   0.12585   0.12270  -0.0481  0.9767  0.0201  -1.0851   0.0000   0.0000   0.0000  -0.4599
  -8.670  -0.0732   0.12572   0.12257  -0.0482  0.9765  0.0202  -1.0843   0.0000   0.0000   0.0000  -0.4681
  -8.660  -0.0725   0.12559   0.12244  -0.0484  0.9764  0.0202  -1.0836   0.0000   0.0000   0.0000  -0.4766
  -8.650  -0.0718   0.12546   0.12231  -0.0485  0.9762  0.0202  -1.0828   0.0000   0.0000   0.0000  -0.4854
  -8.640  -0.0711   0.12533   0.12218  -0.0486  0.9761  0.0202  -1.0821   0.0000   0.0000   0.0000  -0.4944
  -8.630  -0.0704   0.12520   0.12205  -0.0487  0.9759  0.0202  -1.0813   0.0000   0.0000   0.0000  -0.5038
  -8.620  -0.0697   0.12507   0.12192  -0.0489  0.9758  0.0202  -1.0805   0.0000   0.0000   0.0000  -0.5133
  -8.610  -0.0690   0.12494   0.12179  -0.0490  0.9756  0.0202  -1.0798   0.0000   0.0000   0.0000  -0.5232
  -8.600  -0.0682   0.12481   0.12166  -0.0491  0.9755  0.0202  -1.0790   0.0000   0.0000   0.0000  -0.5334
  -8.590  -0.0675   0.12468   0.12153  -0.0493  0.9754  0.0203  -1.0783   0.0000   0.0000   0.0000  -0.5439
  -8.580  -0.0668   0.12455   0.12140  -0.0494  0.9752  0.0203  -1.0775   0.0000   0.0000   0.0000  -0.5547
  -8.570  -0.0660   0.12442   0.12127  -0.0496  0.9751  0.0203  -1.0767   0.0000   0.0000   0.0000  -0.5659
  -8.560  -0.0653   0.12429   0.12114  -0.0497  0.9750  0.0203  -1.0759   0.0000   0.0000   0.0000  -0.5773
  -8.550  -0.0645   0.12416   0.12100  -0.0498  0.9748  0.0203  -1.0752   0.0000   0.0000   0.0000  -0.5892
  -8.540  -0.0638   0.12402   0.12087  -0.0500  0.9747  0.0203  -1.0744   0.0000   0.0000   0.0000  -0.6014
  -8.530  -0.0630   0.12389   0.12074  -0.0501  0.9746  0.0203  -1.0736   0.0000   0.0000   0.0000  -0.6139
  -8.520  -0.0622   0.12376   0.12061  -0.0503  0.9745  0.0204  -1.0729   0.0000   0.0000   0.0000  -0.6269
  -8.510  -0.0615   0.12363   0.12047  -0.0504  0.9744  0.0204  -1.0721   0.0000   0.0000   0.0000  -0.6403
  -8.500  -0.0607   0.12349   0.12034  -0.0506  0.9742  0.0204  -1.0713   0.0000   0.0000   0.0000  -0.6541
  -8.490  -0.0599   0.12336   0.12021  -0.0507  0.9741  0.0204  -1.0705   0.0000   0.0000   0.0000  -0.6683
  -8.480  -0.0591   0.12323   0.12008  -0.0509  0.9740  0.0204  -1.0698   0.0000   0.0000   0.0000  -0.6831
  -8.470  -0.0583   0.12309   0.11994  -0.0510  0.9739  0.0204  -1.0690   0.0000   0.0000   0.0000  -0.6982
  -8.460  -0.0575   0.12296   0.11981  -0.0512  0.9738  0.0204  -1.0682   0.0000   0.0000   0.0000  -0.7139
  -8.450  -0.0568   0.12283   0.11967  -0.0513  0.9737  0.0205  -1.0674   0.0000   0.0000   0.0000  -0.7302
  -8.440  -0.0560   0.12269   0.11954  -0.0515  0.9736  0.0205  -1.0667   0.0000   0.0000   0.0000  -0.7469
  -8.430  -0.0551   0.12256   0.11941  -0.0517  0.9735  0.0205  -1.0659   0.0000   0.0000   0.0000  -0.7643
  -8.420  -0.0543   0.12242   0.11927  -0.0518  0.9734  0.0205  -1.0651   0.0000   0.0000   0.0000  -0.7822
  -8.410  -0.0535   0.12229   0.11914  -0.0520  0.9733  0.0205  -1.0643   0.0000   0.0000   0.0000  -0.8008
  -8.400  -0.0527   0.12216   0.11900  -0.0521  0.9732  0.0205  -1.0636   0.0000   0.0000   0.0000  -0.8201
  -8.390  -0.0519   0.12202   0.11887  -0.0523  0.9731  0.0206  -1.0628   0.0000   0.0000   0.0000  -0.8400
  -8.380  -0.0511   0.12189   0.11874  -0.0525  0.9730  0.0206  -1.0620   0.0000   0.0000   0.0000  -0.8607
  -8.370  -0.0502   0.12175   0.11860  -0.0526  0.9729  0.0206  -1.0612   0.0000   0.0000   0.0000  -0.8821
  -8.360  -0.0494   0.12162   0.11847  -0.0528  0.9728  0.0206  -1.0605   0.0000   0.0000   0.0000  -0.9044
  -8.350  -0.0486   0.12148   0.11833  -0.0529  0.9727  0.0206  -1.0597   0.0000   0.0000   0.0000  -0.9276
  -8.340  -0.0478   0.12135   0.11820  -0.0531  0.9726  0.0206  -1.0589   0.0000   0.0000   0.0000  -0.9516
  -8.330  -0.0469   0.12121   0.11806  -0.0533  0.9725  0.0206  -1.0581   0.0000   0.0000   0.0000  -0.9766
  -8.320  -0.0461   0.12108   0.11792  -0.0534  0.9725  0.0207  -1.0574   0.0000   0.0000   0.0000  -1.0027
  -8.310  -0.0452   0.12094   0.11779  -0.0536  0.9724  0.0207  -1.0566   0.0000   0.0000   0.0000  -1.0298
  -8.300  -0.0444   0.12080   0.11765  -0.0538  0.9723  0.0207  -1.0558   0.0000   0.0000   0.0000  -1.0581
  -8.290  -0.0435   0.12067   0.11752  -0.0540  0.9722  0.0207  -1.0550   0.0000   0.0000   0.0000  -1.0877
  -8.280  -0.0427   0.12053   0.11738  -0.0541  0.9721  0.0207  -1.0543   0.0000   0.0000   0.0000  -1.1185
  -8.270  -0.0418   0.12039   0.11724  -0.0543  0.9721  0.0207  -1.0535   0.0000   0.0000   0.0000  -1.1508
  -8.260  -0.0409   0.12026   0.11711  -0.0545  0.9720  0.0208  -1.0527   0.0000   0.0000   0.0000  -1.1845
  -8.250  -0.0401   0.12012   0.11697  -0.0546  0.9719  0.0208  -1.0520   0.0000   0.0000   0.0000  -1.2199
  -8.240  -0.0392   0.11998   0.11683  -0.0548  0.9718  0.0208  -1.0512   0.0000   0.0000   0.0000  -1.2570
  -8.230  -0.0383   0.11985   0.11670  -0.0550  0.9717  0.0208  -1.0504   0.0000   0.0000   0.0000  -1.2959
  -8.220  -0.0374   0.11971   0.11656  -0.0552  0.9717  0.0208  -1.0496   0.0000   0.0000   0.0000  -1.3368
  -8.210  -0.0366   0.11957   0.11642  -0.0553  0.9716  0.0208  -1.0489   0.0000   0.0000   0.0000  -1.3799
  -8.200  -0.0357   0.11943   0.11628  -0.0555  0.9715  0.0209  -1.0481   0.0000   0.0000   0.0000  -1.4253
  -8.190  -0.0348   0.11930   0.11614  -0.0557  0.9715  0.0209  -1.0473   0.0000   0.0000   0.0000  -1.4733
  -8.180  -0.0339   0.11916   0.11601  -0.0559  0.9714  0.0209  -1.0465   0.0000   0.0000   0.0000  -1.5240
  -8.170  -0.0330   0.11902   0.11587  -0.0561  0.9713  0.0209  -1.0458   0.0000   0.0000   0.0000  -1.5777
  -8.160  -0.0321   0.11888   0.11573  -0.0562  0.9713  0.0209  -1.0450   0.0000   0.0000   0.0000  -1.6346
  -8.150  -0.0312   0.11874   0.11559  -0.0564  0.9712  0.0209  -1.0442   0.0000   0.0000   0.0000  -1.6951
  -8.140  -0.0303   0.11860   0.11545  -0.0566  0.9711  0.0210  -1.0434   0.0000   0.0000   0.0000  -1.7594
  -8.130  -0.0316   0.11858   0.11543  -0.0562  0.9702  0.0210  -1.0443   0.0000   0.0000   0.0000  -1.6595
  -8.120  -0.0318   0.11849   0.11535  -0.0560  0.9697  0.0210  -1.0443   0.0000   0.0000   0.0000  -1.6470
  -8.110  -0.0316   0.11839   0.11525  -0.0560  0.9693  0.0210  -1.0440   0.0000   0.0000   0.0000  -1.6545
  -8.100  -0.0313   0.11829   0.11514  -0.0560  0.9690  0.0210  -1.0437   0.0000   0.0000   0.0000  -1.6716
  -8.090  -0.0310   0.11817   0.11503  -0.0561  0.9686  0.0210  -1.0433   0.0000   0.0000   0.0000  -1.6950
  -8.080  -0.0305   0.11806   0.11492  -0.0561  0.9684  0.0210  -1.0429   0.0000   0.0000   0.0000  -1.7236
  -8.070  -0.0301   0.11794   0.11480  -0.0562  0.9681  0.0210  -1.0425   0.0000   0.0000   0.0000  -1.7570
  -8.060  -0.0296   0.11782   0.11468  -0.0562  0.9678  0.0210  -1.0420   0.0000   0.0000   0.0000  -1.7942
  -8.050  -0.0290   0.11770   0.11456  -0.0563  0.9676  0.0211  -1.0415   0.0000   0.0000   0.0000  -1.8350
  -8.040  -0.0284   0.11758   0.11444  -0.0564  0.9673  0.0211  -1.0410   0.0000   0.0000   0.0000  -1.8795
  -8.030  -0.0279   0.11746   0.11432  -0.0565  0.9671  0.0211  -1.0405   0.0000   0.0000   0.0000  -1.9277
  -8.020  -0.0272   0.11734   0.11420  -0.0566  0.9669  0.0211  -1.0399   0.0000   0.0000   0.0000  -1.9799
  -8.010  -0.0266   0.11721   0.11407  -0.0567  0.9667  0.0211  -1.0394   0.0000   0.0000   0.0000  -2.0362
  -8.000  -0.0260   0.11708   0.11395  -0.0568  0.9665  0.0211  -1.0388   0.0000   0.0000   0.0000  -2.0967
  -7.990  -0.0253   0.11696   0.11382  -0.0569  0.9663  0.0211  -1.0382   0.0000   0.0000   0.0000  -2.1617
  -7.980  -0.0247   0.11683   0.11369  -0.0570  0.9661  0.0212  -1.0377   0.0000   0.0000   0.0000  -2.2315
  -7.970  -0.0240   0.11670   0.11357  -0.0572  0.9659  0.0212  -1.0371   0.0000   0.0000   0.0000  -2.3067
  -7.960  -0.0233   0.11657   0.11344  -0.0573  0.9657  0.0212  -1.0365   0.0000   0.0000   0.0000  -2.3875
  -7.950  -0.0226   0.11644   0.11331  -0.0574  0.9655  0.0212  -1.0359   0.0000   0.0000   0.0000  -2.4747
  -7.940  -0.0219   0.11631   0.11318  -0.0575  0.9654  0.0212  -1.0353   0.0000   0.0000   0.0000  -2.5688
  -7.930  -0.0212   0.11618   0.11305  -0.0577  0.9652  0.0212  -1.0347   0.0000   0.0000   0.0000  -2.6706
  -7.920  -0.0204   0.11605   0.11292  -0.0578  0.9650  0.0213  -1.0341   0.0000   0.0000   0.0000  -2.7808
  -7.910  -0.0197   0.11592   0.11279  -0.0579  0.9648  0.0213  -1.0335   0.0000   0.0000   0.0000  -2.9007
  -7.900  -0.0190   0.11579   0.11266  -0.0581  0.9647  0.0213  -1.0329   0.0000   0.0000   0.0000  -3.0313
  -7.890  -0.0182   0.11566   0.11252  -0.0582  0.9645  0.0213  -1.0323   0.0000   0.0000   0.0000  -3.1741
  -7.880  -0.0174   0.11553   0.11239  -0.0583  0.9644  0.0213  -1.0317   0.0000   0.0000   0.0000  -3.3308
  -7.870  -0.0167   0.11539   0.11226  -0.0585  0.9642  0.0213  -1.0311   0.0000   0.0000   0.0000  -3.5034
  -7.860  -0.0159   0.11526   0.11213  -0.0586  0.9641  0.0214  -1.0305   0.0000   0.0000   0.0000  -3.6944
  -7.850  -0.0151   0.11513   0.11199  -0.0588  0.9639  0.0214  -1.0299   0.0000   0.0000   0.0000  -3.9067
  -7.840  -0.0143   0.11499   0.11186  -0.0589  0.9638  0.0214  -1.0292   0.0000   0.0000   0.0000  -4.1440
  -7.830  -0.0136   0.11486   0.11172  -0.0591  0.9636  0.0214  -1.0286   0.0000   0.0000   0.0000  -4.4110
  -7.820  -0.0128   0.11472   0.11159  -0.0592  0.9635  0.0214  -1.0280   0.0000   0.0000   0.0000  -4.7134
  -7.810  -0.0120   0.11459   0.11145  -0.0594  0.9633  0.0214  -1.0274   0.0000   0.0000   0.0000  -5.0586
  -7.800  -0.0111   0.11445   0.11132  -0.0595  0.9632  0.0215  -1.0267   0.0000   0.0000   0.0000  -5.4564
  -7.790  -0.0103   0.11432   0.11118  -0.0597  0.9631  0.0215  -1.0261   0.0000   0.0000   0.0000  -5.9196
  -7.780  -0.0095   0.11418   0.11105  -0.0598  0.9629  0.0215  -1.0255   0.0000   0.0000   0.0000  -6.4655
  -7.770  -0.0087   0.11404   0.11091  -0.0600  0.9628  0.0215  -1.0249   0.0000   0.0000   0.0000  -7.1185
  -7.760  -0.0079   0.11391   0.11077  -0.0602  0.9627  0.0215  -1.0242   0.0000   0.0000   0.0000  -7.9132
  -7.750  -0.0070   0.11377   0.11064  -0.0603  0.9626  0.0216  -1.0236   0.0000   0.0000   0.0000  -8.9010
  -7.740  -0.0062   0.11363   0.11050  -0.0605  0.9624  0.0216  -1.0230   0.0000   0.0000   0.0000  -10.1624
  -7.730  -0.0054   0.11350   0.11036  -0.0606  0.9623  0.0216  -1.0223   0.0000   0.0000   0.0000  -11.8299
  -7.720  -0.0045   0.11336   0.11023  -0.0608  0.9622  0.0216  -1.0217   0.0000   0.0000   0.0000  -14.1346
  -7.710  -0.0037   0.11322   0.11009  -0.0610  0.9621  0.0216  -1.0211   0.0000   0.0000   0.0000  -17.5269
  -7.700  -0.0028   0.11308   0.10995  -0.0611  0.9620  0.0216  -1.0204   0.0000   0.0000   0.0000  -23.0131
  -7.690  -0.0019   0.11294   0.10981  -0.0613  0.9618  0.0217  -1.0198   0.0000   0.0000   0.0000  -33.3951
  -7.680  -0.0011   0.11280   0.10967  -0.0615  0.9617  0.0217  -1.0192   0.0000   0.0000   0.0000  -60.4993
  -7.670  -0.0002   0.11267   0.10953  -0.0616  0.9616  0.0217  -1.0185   0.0000   0.0000   0.0000  -311.7075
  -7.660   0.0007   0.11253   0.10939  -0.0618  0.9615  0.0217  -1.0179   0.0000   0.0000   0.0000  99.8268
  -7.650   0.0015   0.11239   0.10926  -0.0620  0.9614  0.0217  -1.0173   0.0000   0.0000   0.0000  43.2018
  -7.640   0.0024   0.11225   0.10912  -0.0622  0.9613  0.0218  -1.0166   0.0000   0.0000   0.0000  27.6391
  -7.630   0.0033   0.11211   0.10898  -0.0623  0.9612  0.0218  -1.0160   0.0000   0.0000   0.0000  20.3595
  -7.620   0.0042   0.11197   0.10884  -0.0625  0.9611  0.0218  -1.0153   0.0000   0.0000   0.0000  16.1403
  -7.610   0.0051   0.11183   0.10870  -0.0627  0.9610  0.0218  -1.0147   0.0000   0.0000   0.0000  13.3871
  -7.600   0.0060   0.11169   0.10856  -0.0629  0.9609  0.0218  -1.0141   0.0000   0.0000   0.0000  11.4491
  -7.590   0.0069   0.11155   0.10842  -0.0630  0.9608  0.0219  -1.0134   0.0000   0.0000   0.0000  10.0110
  -7.580   0.0078   0.11141   0.10828  -0.0632  0.9607  0.0219  -1.0128   0.0000   0.0000   0.0000   8.9016
  -7.570   0.0087   0.11127   0.10813  -0.0634  0.9606  0.0219  -1.0122   0.0000   0.0000   0.0000   8.0198
  -7.560   0.0096   0.11113   0.10799  -0.0636  0.9605  0.0219  -1.0115   0.0000   0.0000   0.0000   7.3022
  -7.550   0.0105   0.11099   0.10785  -0.0638  0.9605  0.0219  -1.0109   0.0000   0.0000   0.0000   6.7068
  -7.540   0.0114   0.11084   0.10771  -0.0639  0.9604  0.0220  -1.0103   0.0000   0.0000   0.0000   6.2050
  -7.530   0.0123   0.11070   0.10757  -0.0641  0.9603  0.0220  -1.0096   0.0000   0.0000   0.0000   5.7762
  -7.520   0.0133   0.11056   0.10743  -0.0643  0.9602  0.0220  -1.0090   0.0000   0.0000   0.0000   5.4057
  -7.510   0.0142   0.11042   0.10729  -0.0645  0.9601  0.0220  -1.0084   0.0000   0.0000   0.0000   5.0824
  -7.500   0.0151   0.11028   0.10714  -0.0647  0.9600  0.0220  -1.0077   0.0000   0.0000   0.0000   4.7977
  -7.490   0.0160   0.11014   0.10700  -0.0649  0.9599  0.0221  -1.0071   0.0000   0.0000   0.0000   4.5452
  -7.480   0.0170   0.10999   0.10686  -0.0650  0.9599  0.0221  -1.0065   0.0000   0.0000   0.0000   4.3198
  -7.470   0.0179   0.10985   0.10672  -0.0652  0.9598  0.0221  -1.0059   0.0000   0.0000   0.0000   4.1172
  -7.460   0.0189   0.10971   0.10658  -0.0654  0.9597  0.0221  -1.0052   0.0000   0.0000   0.0000   3.9343
  -7.450   0.0198   0.10957   0.10643  -0.0656  0.9596  0.0222  -1.0046   0.0000   0.0000   0.0000   3.7682
  -7.440   0.0207   0.10942   0.10629  -0.0658  0.9596  0.0222  -1.0040   0.0000   0.0000   0.0000   3.6169
  -7.430   0.0217   0.10928   0.10615  -0.0660  0.9595  0.0222  -1.0033   0.0000   0.0000   0.0000   3.4783
  -7.420   0.0226   0.10914   0.10601  -0.0662  0.9594  0.0222  -1.0027   0.0000   0.0000   0.0000   3.3509
  -7.410   0.0236   0.10900   0.10586  -0.0664  0.9593  0.0222  -1.0021   0.0000   0.0000   0.0000   3.2335
  -7.400   0.0246   0.10885   0.10572  -0.0666  0.9593  0.0223  -1.0015   0.0000   0.0000   0.0000   3.1249
  -7.390   0.0255   0.10871   0.10558  -0.0668  0.9592  0.0223  -1.0009   0.0000   0.0000   0.0000   3.0243
  -7.380   0.0265   0.10857   0.10543  -0.0670  0.9591  0.0223  -1.0002   0.0000   0.0000   0.0000   2.9306
  -7.370   0.0274   0.10842   0.10529  -0.0671  0.9591  0.0223  -0.9996   0.0000   0.0000   0.0000   2.8433
  -7.360   0.0284   0.10828   0.10515  -0.0673  0.9590  0.0224  -0.9990   0.0000   0.0000   0.0000   2.7618
  -7.350   0.0294   0.10814   0.10500  -0.0675  0.9589  0.0224  -0.9984   0.0000   0.0000   0.0000   2.6854
  -7.340   0.0304   0.10799   0.10486  -0.0677  0.9589  0.0224  -0.9978   0.0000   0.0000   0.0000   2.6137
  -7.320   0.0249   0.10816   0.10504  -0.0661  0.9557  0.0224  -1.0013   0.0000   0.0000   0.0000   3.0672
  -7.310   0.0251   0.10806   0.10494  -0.0661  0.9553  0.0224  -1.0012   0.0000   0.0000   0.0000   3.0399
  -7.300   0.0254   0.10796   0.10484  -0.0661  0.9549  0.0224  -1.0009   0.0000   0.0000   0.0000   3.0037
  -7.290   0.0258   0.10785   0.10473  -0.0661  0.9546  0.0224  -1.0007   0.0000   0.0000   0.0000   2.9620
  -7.280   0.0263   0.10774   0.10462  -0.0662  0.9543  0.0224  -1.0004   0.0000   0.0000   0.0000   2.9167
  -7.270   0.0268   0.10762   0.10450  -0.0662  0.9540  0.0224  -1.0001   0.0000   0.0000   0.0000   2.8692
  -7.260   0.0273   0.10750   0.10439  -0.0663  0.9537  0.0225  -0.9998   0.0000   0.0000   0.0000   2.8205
  -7.250   0.0279   0.10738   0.10427  -0.0664  0.9534  0.0225  -0.9994   0.0000   0.0000   0.0000   2.7712
  -7.240   0.0285   0.10726   0.10415  -0.0665  0.9531  0.0225  -0.9991   0.0000   0.0000   0.0000   2.7219
  -7.230   0.0291   0.10714   0.10403  -0.0666  0.9529  0.0225  -0.9987   0.0000   0.0000   0.0000   2.6729
  -7.220   0.0297   0.10702   0.10390  -0.0667  0.9526  0.0225  -0.9983   0.0000   0.0000   0.0000   2.6245
  -7.210   0.0304   0.10689   0.10378  -0.0668  0.9524  0.0226  -0.9979   0.0000   0.0000   0.0000   2.5769
  -7.200   0.0310   0.10677   0.10365  -0.0669  0.9522  0.0226  -0.9975   0.0000   0.0000   0.0000   2.5302
  -7.190   0.0317   0.10664   0.10353  -0.0670  0.9519  0.0226  -0.9971   0.0000   0.0000   0.0000   2.4846
  -7.180   0.0324   0.10651   0.10340  -0.0671  0.9517  0.0226  -0.9967   0.0000   0.0000   0.0000   2.4401
  -7.170   0.0331   0.10638   0.10327  -0.0673  0.9515  0.0226  -0.9963   0.0000   0.0000   0.0000   2.3967
  -7.160   0.0339   0.10626   0.10314  -0.0674  0.9513  0.0227  -0.9959   0.0000   0.0000   0.0000   2.3544
  -7.150   0.0346   0.10613   0.10301  -0.0675  0.9511  0.0227  -0.9954   0.0000   0.0000   0.0000   2.3134
  -7.140   0.0353   0.10600   0.10288  -0.0676  0.9509  0.0227  -0.9950   0.0000   0.0000   0.0000   2.2735
  -7.130   0.0361   0.10586   0.10275  -0.0678  0.9507  0.0227  -0.9946   0.0000   0.0000   0.0000   2.2348
  -7.120   0.0369   0.10573   0.10262  -0.0679  0.9505  0.0227  -0.9941   0.0000   0.0000   0.0000   2.1973
  -7.110   0.0376   0.10560   0.10249  -0.0681  0.9504  0.0228  -0.9937   0.0000   0.0000   0.0000   2.1609
  -7.100   0.0384   0.10547   0.10236  -0.0682  0.9502  0.0228  -0.9932   0.0000   0.0000   0.0000   2.1257
  -7.090   0.0392   0.10534   0.10223  -0.0683  0.9500  0.0228  -0.9928   0.0000   0.0000   0.0000   2.0917
  -7.080   0.0400   0.10520   0.10209  -0.0685  0.9498  0.0228  -0.9923   0.0000   0.0000   0.0000   2.0588
  -7.070   0.0408   0.10507   0.10196  -0.0686  0.9496  0.0229  -0.9919   0.0000   0.0000   0.0000   2.0269
  -7.060   0.0416   0.10493   0.10182  -0.0688  0.9495  0.0229  -0.9914   0.0000   0.0000   0.0000   1.9959
  -7.050   0.0424   0.10480   0.10169  -0.0689  0.9493  0.0229  -0.9909   0.0000   0.0000   0.0000   1.9659
  -7.040   0.0432   0.10466   0.10155  -0.0691  0.9492  0.0229  -0.9905   0.0000   0.0000   0.0000   1.9368
  -7.030   0.0441   0.10453   0.10142  -0.0692  0.9490  0.0229  -0.9900   0.0000   0.0000   0.0000   1.9085
  -7.020   0.0449   0.10439   0.10128  -0.0694  0.9488  0.0230  -0.9896   0.0000   0.0000   0.0000   1.8812
  -7.010   0.0457   0.10426   0.10115  -0.0696  0.9487  0.0230  -0.9891   0.0000   0.0000   0.0000   1.8546
  -7.000   0.0466   0.10412   0.10101  -0.0697  0.9485  0.0230  -0.9886   0.0000   0.0000   0.0000   1.8289
  -6.990   0.0474   0.10398   0.10087  -0.0699  0.9484  0.0230  -0.9882   0.0000   0.0000   0.0000   1.8039
  -6.980   0.0483   0.10384   0.10074  -0.0700  0.9482  0.0231  -0.9877   0.0000   0.0000   0.0000   1.7796
  -6.970   0.0491   0.10371   0.10060  -0.0702  0.9481  0.0231  -0.9873   0.0000   0.0000   0.0000   1.7561
  -6.960   0.0500   0.10357   0.10046  -0.0704  0.9480  0.0231  -0.9868   0.0000   0.0000   0.0000   1.7332
  -6.950   0.0509   0.10343   0.10032  -0.0705  0.9478  0.0231  -0.9863   0.0000   0.0000   0.0000   1.7110
  -6.940   0.0518   0.10329   0.10018  -0.0707  0.9477  0.0232  -0.9859   0.0000   0.0000   0.0000   1.6894
  -6.930   0.0526   0.10315   0.10005  -0.0709  0.9476  0.0232  -0.9854   0.0000   0.0000   0.0000   1.6685
  -6.920   0.0535   0.10301   0.09991  -0.0710  0.9474  0.0232  -0.9849   0.0000   0.0000   0.0000   1.6481
  -6.910   0.0544   0.10288   0.09977  -0.0712  0.9473  0.0232  -0.9845   0.0000   0.0000   0.0000   1.6283
  -6.900   0.0553   0.10274   0.09963  -0.0714  0.9472  0.0233  -0.9840   0.0000   0.0000   0.0000   1.6090
  -6.890   0.0562   0.10260   0.09949  -0.0715  0.9470  0.0233  -0.9835   0.0000   0.0000   0.0000   1.5905
  -6.880   0.0571   0.10246   0.09935  -0.0717  0.9469  0.0233  -0.9831   0.0000   0.0000   0.0000   1.5725
  -6.870   0.0580   0.10232   0.09921  -0.0719  0.9468  0.0233  -0.9826   0.0000   0.0000   0.0000   1.5549
  -6.860   0.0589   0.10218   0.09907  -0.0721  0.9467  0.0234  -0.9822   0.0000   0.0000   0.0000   1.5378
  -6.850   0.0598   0.10204   0.09893  -0.0722  0.9465  0.0234  -0.9817   0.0000   0.0000   0.0000   1.5212
  -6.840   0.0607   0.10190   0.09879  -0.0724  0.9464  0.0234  -0.9812   0.0000   0.0000   0.0000   1.5050
  -6.830   0.0616   0.10176   0.09865  -0.0726  0.9463  0.0234  -0.9808   0.0000   0.0000   0.0000   1.4892
  -6.820   0.0625   0.10162   0.09851  -0.0728  0.9462  0.0235  -0.9803   0.0000   0.0000   0.0000   1.4738
  -6.810   0.0635   0.10148   0.09837  -0.0730  0.9461  0.0235  -0.9799   0.0000   0.0000   0.0000   1.4588
  -6.800   0.0644   0.10133   0.09823  -0.0731  0.9460  0.0235  -0.9794   0.0000   0.0000   0.0000   1.4441
  -6.790   0.0653   0.10119   0.09809  -0.0733  0.9458  0.0235  -0.9790   0.0000   0.0000   0.0000   1.4298
  -6.780   0.0663   0.10105   0.09794  -0.0735  0.9457  0.0236  -0.9785   0.0000   0.0000   0.0000   1.4159
  -6.770   0.0672   0.10091   0.09780  -0.0737  0.9456  0.0236  -0.9781   0.0000   0.0000   0.0000   1.4023
  -6.760   0.0681   0.10077   0.09766  -0.0739  0.9455  0.0236  -0.9776   0.0000   0.0000   0.0000   1.3890
  -6.750   0.0691   0.10063   0.09752  -0.0740  0.9454  0.0236  -0.9772   0.0000   0.0000   0.0000   1.3760
  -6.740   0.0700   0.10048   0.09738  -0.0742  0.9453  0.0237  -0.9767   0.0000   0.0000   0.0000   1.3634
  -6.730   0.0710   0.10034   0.09723  -0.0744  0.9452  0.0237  -0.9763   0.0000   0.0000   0.0000   1.3510
  -6.720   0.0719   0.10020   0.09709  -0.0746  0.9451  0.0237  -0.9758   0.0000   0.0000   0.0000   1.3390
  -6.710   0.0729   0.10006   0.09695  -0.0748  0.9450  0.0238  -0.9754   0.0000   0.0000   0.0000   1.3272
  -6.700   0.0739   0.09991   0.09680  -0.0750  0.9449  0.0238  -0.9749   0.0000   0.0000   0.0000   1.3156
  -6.690   0.0748   0.09977   0.09666  -0.0752  0.9448  0.0238  -0.9745   0.0000   0.0000   0.0000   1.3044
  -6.680   0.0758   0.09963   0.09652  -0.0754  0.9447  0.0238  -0.9741   0.0000   0.0000   0.0000   1.2934
  -6.670   0.0768   0.09948   0.09637  -0.0756  0.9446  0.0239  -0.9736   0.0000   0.0000   0.0000   1.2826
  -6.660   0.0778   0.09934   0.09623  -0.0758  0.9446  0.0239  -0.9732   0.0000   0.0000   0.0000   1.2721
  -6.650   0.0787   0.09920   0.09609  -0.0760  0.9445  0.0239  -0.9728   0.0000   0.0000   0.0000   1.2618
  -6.640   0.0797   0.09905   0.09594  -0.0761  0.9444  0.0240  -0.9723   0.0000   0.0000   0.0000   1.2517
  -6.630   0.0807   0.09891   0.09580  -0.0763  0.9443  0.0240  -0.9719   0.0000   0.0000   0.0000   1.2418
  -6.620   0.0817   0.09876   0.09565  -0.0765  0.9442  0.0240  -0.9715   0.0000   0.0000   0.0000   1.2322
  -6.610   0.0827   0.09862   0.09551  -0.0767  0.9441  0.0240  -0.9710   0.0000   0.0000   0.0000   1.2227
  -6.600   0.0837   0.09847   0.09537  -0.0769  0.9440  0.0241  -0.9706   0.0000   0.0000   0.0000   1.2134
  -6.590   0.0847   0.09833   0.09522  -0.0771  0.9440  0.0241  -0.9702   0.0000   0.0000   0.0000   1.2044
  -6.570   0.0760   0.09875   0.09566  -0.0746  0.9393  0.0240  -0.9753   0.0000   0.0000   0.0000   1.2791
  -6.560   0.0761   0.09867   0.09558  -0.0746  0.9388  0.0240  -0.9754   0.0000   0.0000   0.0000   1.2772
  -6.550   0.0763   0.09857   0.09549  -0.0745  0.9383  0.0241  -0.9754   0.0000   0.0000   0.0000   1.2740
  -6.540   0.0766   0.09847   0.09539  -0.0746  0.9379  0.0241  -0.9754   0.0000   0.0000   0.0000   1.2698
  -6.530   0.0770   0.09837   0.09528  -0.0746  0.9375  0.0241  -0.9753   0.0000   0.0000   0.0000   1.2651
  -6.520   0.0775   0.09826   0.09518  -0.0746  0.9371  0.0241  -0.9752   0.0000   0.0000   0.0000   1.2598
  -6.510   0.0780   0.09815   0.09507  -0.0747  0.9368  0.0241  -0.9751   0.0000   0.0000   0.0000   1.2541
  -6.500   0.0785   0.09804   0.09495  -0.0748  0.9364  0.0242  -0.9749   0.0000   0.0000   0.0000   1.2482
  -6.490   0.0790   0.09792   0.09484  -0.0748  0.9361  0.0242  -0.9748   0.0000   0.0000   0.0000   1.2421
  -6.480   0.0796   0.09780   0.09472  -0.0749  0.9358  0.0242  -0.9746   0.0000   0.0000   0.0000   1.2357
  -6.470   0.0802   0.09768   0.09460  -0.0750  0.9355  0.0242  -0.9744   0.0000   0.0000   0.0000   1.2293
  -6.460   0.0809   0.09756   0.09448  -0.0751  0.9352  0.0243  -0.9742   0.0000   0.0000   0.0000   1.2228
  -6.450   0.0815   0.09744   0.09436  -0.0752  0.9350  0.0243  -0.9740   0.0000   0.0000   0.0000   1.2161
  -6.440   0.0822   0.09731   0.09423  -0.0753  0.9347  0.0243  -0.9738   0.0000   0.0000   0.0000   1.2095
  -6.430   0.0829   0.09719   0.09411  -0.0755  0.9344  0.0243  -0.9736   0.0000   0.0000   0.0000   1.2028
  -6.420   0.0836   0.09706   0.09398  -0.0756  0.9342  0.0244  -0.9734   0.0000   0.0000   0.0000   1.1961
  -6.410   0.0843   0.09693   0.09386  -0.0757  0.9340  0.0244  -0.9731   0.0000   0.0000   0.0000   1.1893
  -6.400   0.0851   0.09681   0.09373  -0.0758  0.9337  0.0244  -0.9729   0.0000   0.0000   0.0000   1.1826
  -6.390   0.0858   0.09668   0.09360  -0.0760  0.9335  0.0244  -0.9727   0.0000   0.0000   0.0000   1.1759
  -6.380   0.0866   0.09655   0.09347  -0.0761  0.9333  0.0245  -0.9724   0.0000   0.0000   0.0000   1.1693
  -6.370   0.0874   0.09642   0.09334  -0.0762  0.9330  0.0245  -0.9722   0.0000   0.0000   0.0000   1.1626
  -6.360   0.0882   0.09628   0.09321  -0.0764  0.9328  0.0245  -0.9719   0.0000   0.0000   0.0000   1.1560
  -6.350   0.0889   0.09615   0.09307  -0.0765  0.9326  0.0246  -0.9717   0.0000   0.0000   0.0000   1.1495
  -6.340   0.0898   0.09602   0.09294  -0.0766  0.9324  0.0246  -0.9715   0.0000   0.0000   0.0000   1.1430
  -6.330   0.0906   0.09589   0.09281  -0.0768  0.9322  0.0246  -0.9712   0.0000   0.0000   0.0000   1.1365
  -6.320   0.0914   0.09575   0.09267  -0.0769  0.9320  0.0246  -0.9710   0.0000   0.0000   0.0000   1.1302
  -6.310   0.0922   0.09562   0.09254  -0.0771  0.9318  0.0247  -0.9707   0.0000   0.0000   0.0000   1.1238
  -6.300   0.0931   0.09548   0.09240  -0.0772  0.9316  0.0247  -0.9705   0.0000   0.0000   0.0000   1.1176
  -6.290   0.0939   0.09535   0.09227  -0.0774  0.9314  0.0247  -0.9702   0.0000   0.0000   0.0000   1.1114
  -6.280   0.0947   0.09521   0.09213  -0.0776  0.9313  0.0248  -0.9700   0.0000   0.0000   0.0000   1.1052
  -6.270   0.0956   0.09507   0.09200  -0.0777  0.9311  0.0248  -0.9697   0.0000   0.0000   0.0000   1.0992
  -6.260   0.0965   0.09494   0.09186  -0.0779  0.9309  0.0248  -0.9695   0.0000   0.0000   0.0000   1.0932
  -6.250   0.0973   0.09480   0.09172  -0.0780  0.9307  0.0249  -0.9693   0.0000   0.0000   0.0000   1.0873
  -6.240   0.0982   0.09466   0.09159  -0.0782  0.9306  0.0249  -0.9690   0.0000   0.0000   0.0000   1.0814
  -6.230   0.0991   0.09452   0.09145  -0.0784  0.9304  0.0249  -0.9688   0.0000   0.0000   0.0000   1.0756
  -6.220   0.1000   0.09438   0.09131  -0.0785  0.9302  0.0249  -0.9686   0.0000   0.0000   0.0000   1.0699
  -6.210   0.1009   0.09425   0.09117  -0.0787  0.9301  0.0250  -0.9683   0.0000   0.0000   0.0000   1.0643
  -6.200   0.1018   0.09411   0.09103  -0.0789  0.9299  0.0250  -0.9681   0.0000   0.0000   0.0000   1.0587
  -6.190   0.1027   0.09397   0.09089  -0.0790  0.9297  0.0250  -0.9679   0.0000   0.0000   0.0000   1.0532
  -6.180   0.1036   0.09383   0.09075  -0.0792  0.9296  0.0251  -0.9677   0.0000   0.0000   0.0000   1.0477
  -6.170   0.1045   0.09369   0.09061  -0.0794  0.9294  0.0251  -0.9674   0.0000   0.0000   0.0000   1.0424
  -6.160   0.1055   0.09355   0.09047  -0.0796  0.9293  0.0251  -0.9672   0.0000   0.0000   0.0000   1.0371
  -6.150   0.1064   0.09341   0.09033  -0.0797  0.9291  0.0252  -0.9670   0.0000   0.0000   0.0000   1.0318
  -6.140   0.1073   0.09327   0.09019  -0.0799  0.9290  0.0252  -0.9668   0.0000   0.0000   0.0000   1.0267
  -6.130   0.1082   0.09312   0.09005  -0.0801  0.9289  0.0252  -0.9666   0.0000   0.0000   0.0000   1.0216
  -6.120   0.1092   0.09298   0.08988  -0.0803  0.9287  0.0253  -0.9665   0.0000   0.0000   0.0000   1.0166
  -6.110   0.1101   0.09284   0.08974  -0.0805  0.9286  0.0253  -0.9663   0.0000   0.0000   0.0000   1.0116
  -6.100   0.1111   0.09270   0.08960  -0.0806  0.9284  0.0253  -0.9661   0.0000   0.0000   0.0000   1.0067
  -6.090   0.1120   0.09256   0.08946  -0.0808  0.9283  0.0254  -0.9659   0.0000   0.0000   0.0000   1.0019
  -6.080   0.1130   0.09241   0.08931  -0.0810  0.9282  0.0254  -0.9657   0.0000   0.0000   0.0000   0.9971
  -6.070   0.1140   0.09227   0.08917  -0.0812  0.9280  0.0254  -0.9656   0.0000   0.0000   0.0000   0.9924
  -6.060   0.1149   0.09213   0.08903  -0.0814  0.9279  0.0255  -0.9654   0.0000   0.0000   0.0000   0.9878
  -6.050   0.1159   0.09199   0.08889  -0.0816  0.9278  0.0255  -0.9652   0.0000   0.0000   0.0000   0.9832
  -6.040   0.1169   0.09184   0.08874  -0.0818  0.9277  0.0255  -0.9651   0.0000   0.0000   0.0000   0.9787
  -6.030   0.1178   0.09170   0.08860  -0.0820  0.9275  0.0256  -0.9649   0.0000   0.0000   0.0000   0.9742
  -6.020   0.1188   0.09156   0.08846  -0.0821  0.9274  0.0256  -0.9648   0.0000   0.0000   0.0000   0.9698
  -6.010   0.1198   0.09141   0.08831  -0.0823  0.9273  0.0256  -0.9646   0.0000   0.0000   0.0000   0.9655
  -6.000   0.1208   0.09127   0.08817  -0.0825  0.9272  0.0257  -0.9645   0.0000   0.0000   0.0000   0.9612
  -5.990   0.1218   0.09113   0.08803  -0.0827  0.9271  0.0257  -0.9644   0.0000   0.0000   0.0000   0.9570
  -5.980   0.1228   0.09098   0.08788  -0.0829  0.9270  0.0258  -0.9643   0.0000   0.0000   0.0000   0.9528
  -5.970   0.1238   0.09084   0.08774  -0.0831  0.9268  0.0258  -0.9641   0.0000   0.0000   0.0000   0.9487
  -5.960   0.1248   0.09070   0.08760  -0.0833  0.9267  0.0258  -0.9640   0.0000   0.0000   0.0000   0.9447
  -5.950   0.1258   0.09055   0.08745  -0.0835  0.9266  0.0259  -0.9640   0.0000   0.0000   0.0000   0.9407
  -5.940   0.1268   0.09041   0.08731  -0.0837  0.9265  0.0259  -0.9639   0.0000   0.0000   0.0000   0.9367
  -5.930   0.1279   0.09026   0.08716  -0.0839  0.9264  0.0259  -0.9638   0.0000   0.0000   0.0000   0.9327
  -5.910   0.1163   0.09093   0.08785  -0.0807  0.9201  0.0258  -0.9693   0.0000   0.0000   0.0000   0.9717
  -5.900   0.1164   0.09084   0.08777  -0.0806  0.9196  0.0258  -0.9696   0.0000   0.0000   0.0000   0.9705
  -5.890   0.1167   0.09075   0.08768  -0.0806  0.9191  0.0258  -0.9698   0.0000   0.0000   0.0000   0.9688
  -5.880   0.1170   0.09065   0.08758  -0.0806  0.9186  0.0258  -0.9700   0.0000   0.0000   0.0000   0.9669
  -5.870   0.1174   0.09055   0.08748  -0.0807  0.9181  0.0259  -0.9701   0.0000   0.0000   0.0000   0.9647
  -5.860   0.1179   0.09045   0.08737  -0.0807  0.9177  0.0259  -0.9703   0.0000   0.0000   0.0000   0.9624
  -5.850   0.1183   0.09034   0.08727  -0.0808  0.9173  0.0259  -0.9705   0.0000   0.0000   0.0000   0.9599
  -5.840   0.1189   0.09023   0.08716  -0.0808  0.9169  0.0260  -0.9706   0.0000   0.0000   0.0000   0.9573
  -5.830   0.1194   0.09012   0.08705  -0.0809  0.9166  0.0260  -0.9707   0.0000   0.0000   0.0000   0.9546
  -5.820   0.1200   0.09000   0.08693  -0.0810  0.9162  0.0260  -0.9709   0.0000   0.0000   0.0000   0.9519
  -5.810   0.1206   0.08989   0.08682  -0.0811  0.9159  0.0261  -0.9710   0.0000   0.0000   0.0000   0.9490
  -5.800   0.1212   0.08977   0.08670  -0.0812  0.9155  0.0261  -0.9711   0.0000   0.0000   0.0000   0.9462
  -5.790   0.1219   0.08965   0.08658  -0.0813  0.9152  0.0261  -0.9712   0.0000   0.0000   0.0000   0.9433
  -5.780   0.1225   0.08953   0.08646  -0.0814  0.9149  0.0262  -0.9714   0.0000   0.0000   0.0000   0.9403
  -5.770   0.1232   0.08941   0.08634  -0.0815  0.9146  0.0262  -0.9715   0.0000   0.0000   0.0000   0.9374
  -5.760   0.1239   0.08928   0.08622  -0.0816  0.9143  0.0262  -0.9716   0.0000   0.0000   0.0000   0.9344
  -5.750   0.1246   0.08916   0.08609  -0.0818  0.9140  0.0263  -0.9718   0.0000   0.0000   0.0000   0.9314
  -5.740   0.1254   0.08904   0.08597  -0.0819  0.9137  0.0263  -0.9719   0.0000   0.0000   0.0000   0.9284
  -5.730   0.1261   0.08891   0.08584  -0.0820  0.9135  0.0263  -0.9721   0.0000   0.0000   0.0000   0.9254
  -5.720   0.1269   0.08879   0.08572  -0.0821  0.9132  0.0264  -0.9723   0.0000   0.0000   0.0000   0.9224
  -5.710   0.1276   0.08866   0.08559  -0.0823  0.9129  0.0264  -0.9724   0.0000   0.0000   0.0000   0.9194
  -5.700   0.1284   0.08853   0.08547  -0.0824  0.9127  0.0264  -0.9726   0.0000   0.0000   0.0000   0.9164
  -5.690   0.1292   0.08840   0.08534  -0.0826  0.9124  0.0265  -0.9728   0.0000   0.0000   0.0000   0.9134
  -5.680   0.1300   0.08828   0.08521  -0.0827  0.9122  0.0265  -0.9730   0.0000   0.0000   0.0000   0.9104
  -5.670   0.1308   0.08815   0.08508  -0.0829  0.9119  0.0265  -0.9732   0.0000   0.0000   0.0000   0.9074
  -5.660   0.1316   0.08802   0.08495  -0.0830  0.9117  0.0266  -0.9734   0.0000   0.0000   0.0000   0.9045
  -5.650   0.1324   0.08789   0.08482  -0.0832  0.9115  0.0266  -0.9737   0.0000   0.0000   0.0000   0.9015
  -5.640   0.1332   0.08776   0.08469  -0.0833  0.9112  0.0267  -0.9739   0.0000   0.0000   0.0000   0.8986
  -5.630   0.1341   0.08763   0.08456  -0.0835  0.9110  0.0267  -0.9742   0.0000   0.0000   0.0000   0.8957
  -5.620   0.1349   0.08750   0.08443  -0.0836  0.9108  0.0267  -0.9744   0.0000   0.0000   0.0000   0.8928
  -5.610   0.1358   0.08737   0.08430  -0.0838  0.9106  0.0268  -0.9747   0.0000   0.0000   0.0000   0.8899
  -5.600   0.1366   0.08724   0.08417  -0.0840  0.9104  0.0268  -0.9751   0.0000   0.0000   0.0000   0.8871
  -5.590   0.1375   0.08711   0.08404  -0.0841  0.9101  0.0269  -0.9754   0.0000   0.0000   0.0000   0.8843
  -5.580   0.1384   0.08697   0.08391  -0.0843  0.9099  0.0269  -0.9757   0.0000   0.0000   0.0000   0.8815
  -5.570   0.1392   0.08684   0.08378  -0.0845  0.9097  0.0269  -0.9761   0.0000   0.0000   0.0000   0.8787
  -5.560   0.1401   0.08671   0.08365  -0.0846  0.9095  0.0270  -0.9765   0.0000   0.0000   0.0000   0.8760
  -5.550   0.1410   0.08658   0.08351  -0.0848  0.9093  0.0270  -0.9769   0.0000   0.0000   0.0000   0.8732
  -5.540   0.1419   0.08645   0.08338  -0.0850  0.9091  0.0271  -0.9773   0.0000   0.0000   0.0000   0.8705
  -5.530   0.1428   0.08632   0.08325  -0.0851  0.9089  0.0271  -0.9778   0.0000   0.0000   0.0000   0.8679
  -5.520   0.1437   0.08619   0.08312  -0.0853  0.9087  0.0271  -0.9783   0.0000   0.0000   0.0000   0.8652
  -5.510   0.1446   0.08605   0.08299  -0.0855  0.9085  0.0272  -0.9788   0.0000   0.0000   0.0000   0.8626
  -5.500   0.1455   0.08592   0.08286  -0.0857  0.9084  0.0272  -0.9793   0.0000   0.0000   0.0000   0.8600
  -5.490   0.1464   0.08579   0.08273  -0.0859  0.9082  0.0273  -0.9798   0.0000   0.0000   0.0000   0.8575
  -5.480   0.1473   0.08566   0.08260  -0.0861  0.9080  0.0273  -0.9804   0.0000   0.0000   0.0000   0.8549
  -5.470   0.1482   0.08553   0.08247  -0.0862  0.9078  0.0274  -0.9810   0.0000   0.0000   0.0000   0.8524
  -5.460   0.1491   0.08540   0.08233  -0.0864  0.9076  0.0274  -0.9817   0.0000   0.0000   0.0000   0.8500
  -5.450   0.1500   0.08527   0.08220  -0.0866  0.9075  0.0274  -0.9824   0.0000   0.0000   0.0000   0.8475
  -5.440   0.1510   0.08514   0.08207  -0.0868  0.9073  0.0275  -0.9831   0.0000   0.0000   0.0000   0.8451
  -5.430   0.1519   0.08501   0.08194  -0.0870  0.9071  0.0275  -0.9838   0.0000   0.0000   0.0000   0.8428
  -5.420   0.1528   0.08488   0.08182  -0.0872  0.9069  0.0276  -0.9846   0.0000   0.0000   0.0000   0.8404
  -5.410   0.1537   0.08475   0.08169  -0.0874  0.9068  0.0276  -0.9854   0.0000   0.0000   0.0000   0.8381
  -5.400   0.1547   0.08463   0.08156  -0.0876  0.9066  0.0277  -0.9863   0.0000   0.0000   0.0000   0.8359
  -5.390   0.1556   0.08450   0.08143  -0.0878  0.9064  0.0277  -0.9872   0.0000   0.0000   0.0000   0.8336
  -5.370   0.1451   0.08509   0.08204  -0.0848  0.9001  0.0275  -0.9889   0.0000   0.0000   0.0000   0.8545
  -5.360   0.1448   0.08504   0.08199  -0.0847  0.8992  0.0275  -0.9897   0.0000   0.0000   0.0000   0.8547
  -5.350   0.1447   0.08498   0.08194  -0.0846  0.8985  0.0276  -0.9905   0.0000   0.0000   0.0000   0.8544
  -5.340   0.1448   0.08491   0.08187  -0.0845  0.8978  0.0276  -0.9913   0.0000   0.0000   0.0000   0.8539
  -5.330   0.1449   0.08484   0.08180  -0.0845  0.8971  0.0276  -0.9922   0.0000   0.0000   0.0000   0.8531
  -5.320   0.1451   0.08476   0.08172  -0.0845  0.8965  0.0276  -0.9930   0.0000   0.0000   0.0000   0.8522
  -5.310   0.1453   0.08468   0.08164  -0.0845  0.8960  0.0277  -0.9939   0.0000   0.0000   0.0000   0.8512
  -5.300   0.1457   0.08459   0.08155  -0.0845  0.8954  0.0277  -0.9948   0.0000   0.0000   0.0000   0.8501
  -5.290   0.1460   0.08450   0.08146  -0.0846  0.8949  0.0277  -0.9957   0.0000   0.0000   0.0000   0.8489
  -5.280   0.1464   0.08441   0.08137  -0.0846  0.8944  0.0278  -0.9967   0.0000   0.0000   0.0000   0.8476
  -5.270   0.1468   0.08432   0.08128  -0.0847  0.8939  0.0278  -0.9976   0.0000   0.0000   0.0000   0.8463
  -5.260   0.1472   0.08423   0.08119  -0.0848  0.8934  0.0278  -0.9986   0.0000   0.0000   0.0000   0.8449
  -5.250   0.1477   0.08413   0.08110  -0.0848  0.8930  0.0279  -0.9996   0.0000   0.0000   0.0000   0.8436
  -5.240   0.1482   0.08404   0.08100  -0.0849  0.8926  0.0279  -1.0007   0.0000   0.0000   0.0000   0.8422
  -5.230   0.1486   0.08394   0.08091  -0.0850  0.8921  0.0279  -1.0018   0.0000   0.0000   0.0000   0.8408
  -5.220   0.1492   0.08385   0.08081  -0.0851  0.8917  0.0280  -1.0029   0.0000   0.0000   0.0000   0.8393
  -5.210   0.1497   0.08375   0.08072  -0.0852  0.8913  0.0280  -1.0040   0.0000   0.0000   0.0000   0.8379
  -5.200   0.1502   0.08365   0.08062  -0.0853  0.8909  0.0281  -1.0051   0.0000   0.0000   0.0000   0.8365
  -5.190   0.1507   0.08356   0.08052  -0.0854  0.8905  0.0281  -1.0063   0.0000   0.0000   0.0000   0.8351
  -5.180   0.1513   0.08346   0.08043  -0.0855  0.8901  0.0281  -1.0076   0.0000   0.0000   0.0000   0.8337
  -5.170   0.1518   0.08337   0.08033  -0.0856  0.8898  0.0282  -1.0088   0.0000   0.0000   0.0000   0.8323
  -5.160   0.1523   0.08327   0.08024  -0.0857  0.8894  0.0282  -1.0101   0.0000   0.0000   0.0000   0.8309
  -5.150   0.1529   0.08318   0.08014  -0.0858  0.8891  0.0282  -1.0114   0.0000   0.0000   0.0000   0.8295
  -5.140   0.1535   0.08308   0.08005  -0.0860  0.8887  0.0283  -1.0127   0.0000   0.0000   0.0000   0.8281
  -5.130   0.1540   0.08299   0.07995  -0.0861  0.8884  0.0283  -1.0141   0.0000   0.0000   0.0000   0.8268
  -5.120   0.1546   0.08289   0.07986  -0.0862  0.8880  0.0283  -1.0155   0.0000   0.0000   0.0000   0.8255
  -5.110   0.1551   0.08280   0.07977  -0.0863  0.8877  0.0284  -1.0169   0.0000   0.0000   0.0000   0.8241
  -5.100   0.1557   0.08271   0.07967  -0.0865  0.8874  0.0284  -1.0184   0.0000   0.0000   0.0000   0.8229
  -5.090   0.1563   0.08262   0.07958  -0.0866  0.8871  0.0284  -1.0199   0.0000   0.0000   0.0000   0.8216
  -5.080   0.1568   0.08252   0.07949  -0.0867  0.8867  0.0285  -1.0214   0.0000   0.0000   0.0000   0.8203
  -5.070   0.1574   0.08243   0.07939  -0.0869  0.8864  0.0285  -1.0229   0.0000   0.0000   0.0000   0.8191
  -5.060   0.1580   0.08234   0.07930  -0.0870  0.8861  0.0285  -1.0244   0.0000   0.0000   0.0000   0.8178
  -5.050   0.1586   0.08225   0.07921  -0.0871  0.8858  0.0286  -1.0260   0.0000   0.0000   0.0000   0.8166
  -5.040   0.1592   0.08215   0.07912  -0.0873  0.8856  0.0286  -1.0276   0.0000   0.0000   0.0000   0.8153
  -5.030   0.1598   0.08206   0.07902  -0.0875  0.8853  0.0286  -1.0292   0.0000   0.0000   0.0000   0.8141
  -5.020   0.1604   0.08197   0.07893  -0.0876  0.8850  0.0287  -1.0308   0.0000   0.0000   0.0000   0.8128
  -5.010   0.1611   0.08187   0.07883  -0.0878  0.8847  0.0287  -1.0325   0.0000   0.0000   0.0000   0.8116
  -5.000   0.1618   0.08178   0.07874  -0.0880  0.8845  0.0287  -1.0342   0.0000   0.0000   0.0000   0.8103
  -4.990   0.1625   0.08168   0.07864  -0.0882  0.8842  0.0288  -1.0358   0.0000   0.0000   0.0000   0.8089
  -4.980   0.1586   0.08187   0.07884  -0.0870  0.8814  0.0287  -1.0355   0.0000   0.0000   0.0000   0.8151
  -4.970   0.1564   0.08195   0.07893  -0.0863  0.8794  0.0287  -1.0359   0.0000   0.0000   0.0000   0.8186
  -4.960   0.1552   0.08197   0.07895  -0.0859  0.8779  0.0287  -1.0368   0.0000   0.0000   0.0000   0.8203
  -4.950   0.1545   0.08196   0.07894  -0.0857  0.8767  0.0287  -1.0378   0.0000   0.0000   0.0000   0.8214
  -4.940   0.1540   0.08193   0.07892  -0.0855  0.8757  0.0287  -1.0390   0.0000   0.0000   0.0000   0.8220
  -4.930   0.1537   0.08190   0.07888  -0.0854  0.8747  0.0287  -1.0402   0.0000   0.0000   0.0000   0.8223
  -4.920   0.1536   0.08185   0.07883  -0.0853  0.8738  0.0288  -1.0415   0.0000   0.0000   0.0000   0.8223
  -4.910   0.1536   0.08180   0.07878  -0.0853  0.8730  0.0288  -1.0429   0.0000   0.0000   0.0000   0.8221
  -4.900   0.1537   0.08173   0.07872  -0.0853  0.8722  0.0288  -1.0442   0.0000   0.0000   0.0000   0.8217
  -4.890   0.1539   0.08166   0.07865  -0.0853  0.8715  0.0288  -1.0455   0.0000   0.0000   0.0000   0.8210
  -4.880   0.1541   0.08159   0.07857  -0.0854  0.8708  0.0288  -1.0468   0.0000   0.0000   0.0000   0.8202
  -4.870   0.1545   0.08151   0.07849  -0.0854  0.8701  0.0289  -1.0481   0.0000   0.0000   0.0000   0.8192
  -4.860   0.1550   0.08142   0.07840  -0.0855  0.8695  0.0289  -1.0494   0.0000   0.0000   0.0000   0.8180
  -4.850   0.1556   0.08132   0.07831  -0.0857  0.8689  0.0289  -1.0507   0.0000   0.0000   0.0000   0.8166
  -4.840   0.1563   0.08122   0.07820  -0.0858  0.8683  0.0290  -1.0519   0.0000   0.0000   0.0000   0.8149
  -4.830   0.1572   0.08111   0.07809  -0.0860  0.8678  0.0290  -1.0530   0.0000   0.0000   0.0000   0.8130
  -4.820   0.1580   0.08100   0.07798  -0.0862  0.8673  0.0290  -1.0540   0.0000   0.0000   0.0000   0.8110
  -4.810   0.1590   0.08088   0.07786  -0.0864  0.8668  0.0290  -1.0550   0.0000   0.0000   0.0000   0.8089
  -4.800   0.1600   0.08076   0.07774  -0.0866  0.8663  0.0291  -1.0560   0.0000   0.0000   0.0000   0.8067
  -4.790   0.1610   0.08063   0.07761  -0.0868  0.8659  0.0291  -1.0570   0.0000   0.0000   0.0000   0.8046
  -4.780   0.1621   0.08050   0.07748  -0.0871  0.8654  0.0291  -1.0580   0.0000   0.0000   0.0000   0.8023
  -4.770   0.1632   0.08037   0.07735  -0.0873  0.8650  0.0292  -1.0589   0.0000   0.0000   0.0000   0.8001
  -4.760   0.1643   0.08024   0.07722  -0.0876  0.8646  0.0292  -1.0599   0.0000   0.0000   0.0000   0.7978
  -4.750   0.1655   0.08011   0.07708  -0.0878  0.8641  0.0292  -1.0608   0.0000   0.0000   0.0000   0.7956
  -4.740   0.1667   0.07997   0.07694  -0.0881  0.8637  0.0292  -1.0616   0.0000   0.0000   0.0000   0.7933
  -4.730   0.1679   0.07983   0.07680  -0.0884  0.8633  0.0293  -1.0620   0.0000   0.0000   0.0000   0.7908
  -4.720   0.1692   0.07969   0.07666  -0.0886  0.8629  0.0293  -1.0620   0.0000   0.0000   0.0000   0.7881
  -4.710   0.1705   0.07954   0.07651  -0.0889  0.8626  0.0293  -1.0619   0.0000   0.0000   0.0000   0.7855
  -4.700   0.1719   0.07940   0.07637  -0.0892  0.8622  0.0293  -1.0618   0.0000   0.0000   0.0000   0.7828
  -4.690   0.1733   0.07925   0.07622  -0.0894  0.8618  0.0294  -1.0617   0.0000   0.0000   0.0000   0.7802
  -4.680   0.1746   0.07910   0.07606  -0.0897  0.8615  0.0294  -1.0616   0.0000   0.0000   0.0000   0.7776
  -4.670   0.1761   0.07894   0.07591  -0.0900  0.8611  0.0294  -1.0615   0.0000   0.0000   0.0000   0.7749
  -4.660   0.1775   0.07879   0.07575  -0.0903  0.8608  0.0294  -1.0614   0.0000   0.0000   0.0000   0.7723
  -4.650   0.1790   0.07863   0.07558  -0.0906  0.8604  0.0295  -1.0612   0.0000   0.0000   0.0000   0.7697
  -4.640   0.1805   0.07846   0.07542  -0.0909  0.8601  0.0295  -1.0610   0.0000   0.0000   0.0000   0.7670
  -4.630   0.1820   0.07830   0.07525  -0.0913  0.8598  0.0295  -1.0609   0.0000   0.0000   0.0000   0.7644
  -4.620   0.1829   0.07817   0.07513  -0.0914  0.8592  0.0295  -1.0609   0.0000   0.0000   0.0000   0.7627
  -4.610   0.1806   0.07828   0.07524  -0.0907  0.8570  0.0295  -1.0623   0.0000   0.0000   0.0000   0.7656
  -4.600   0.1796   0.07828   0.07524  -0.0904  0.8555  0.0295  -1.0631   0.0000   0.0000   0.0000   0.7665
  -4.590   0.1792   0.07825   0.07521  -0.0903  0.8542  0.0295  -1.0637   0.0000   0.0000   0.0000   0.7666
  -4.580   0.1792   0.07819   0.07515  -0.0902  0.8530  0.0295  -1.0641   0.0000   0.0000   0.0000   0.7662
  -4.570   0.1794   0.07811   0.07507  -0.0902  0.8519  0.0295  -1.0645   0.0000   0.0000   0.0000   0.7654
  -4.560   0.1798   0.07802   0.07498  -0.0902  0.8509  0.0295  -1.0647   0.0000   0.0000   0.0000   0.7644
  -4.550   0.1804   0.07792   0.07488  -0.0903  0.8500  0.0295  -1.0649   0.0000   0.0000   0.0000   0.7631
  -4.540   0.1811   0.07780   0.07477  -0.0904  0.8491  0.0296  -1.0651   0.0000   0.0000   0.0000   0.7617
  -4.530   0.1819   0.07768   0.07465  -0.0905  0.8483  0.0296  -1.0652   0.0000   0.0000   0.0000   0.7601
  -4.520   0.1828   0.07756   0.07452  -0.0907  0.8474  0.0296  -1.0653   0.0000   0.0000   0.0000   0.7584
  -4.510   0.1838   0.07742   0.07438  -0.0908  0.8467  0.0296  -1.0653   0.0000   0.0000   0.0000   0.7566
  -4.500   0.1848   0.07728   0.07424  -0.0910  0.8459  0.0296  -1.0653   0.0000   0.0000   0.0000   0.7548
  -4.490   0.1860   0.07714   0.07409  -0.0912  0.8452  0.0296  -1.0653   0.0000   0.0000   0.0000   0.7528
  -4.480   0.1872   0.07699   0.07394  -0.0915  0.8445  0.0296  -1.0652   0.0000   0.0000   0.0000   0.7508
  -4.470   0.1885   0.07683   0.07378  -0.0917  0.8438  0.0296  -1.0651   0.0000   0.0000   0.0000   0.7487
  -4.460   0.1898   0.07667   0.07362  -0.0920  0.8431  0.0296  -1.0650   0.0000   0.0000   0.0000   0.7466
  -4.450   0.1912   0.07650   0.07345  -0.0923  0.8425  0.0297  -1.0649   0.0000   0.0000   0.0000   0.7444
  -4.440   0.1927   0.07633   0.07328  -0.0926  0.8419  0.0297  -1.0647   0.0000   0.0000   0.0000   0.7422
  -4.430   0.1942   0.07616   0.07310  -0.0929  0.8412  0.0297  -1.0646   0.0000   0.0000   0.0000   0.7399
  -4.420   0.1958   0.07598   0.07292  -0.0932  0.8406  0.0297  -1.0644   0.0000   0.0000   0.0000   0.7376
  -4.410   0.1974   0.07579   0.07273  -0.0936  0.8400  0.0297  -1.0642   0.0000   0.0000   0.0000   0.7353
  -4.400   0.1991   0.07561   0.07254  -0.0939  0.8395  0.0297  -1.0639   0.0000   0.0000   0.0000   0.7329
  -4.390   0.2009   0.07541   0.07234  -0.0943  0.8389  0.0297  -1.0637   0.0000   0.0000   0.0000   0.7306
  -4.380   0.2027   0.07521   0.07214  -0.0947  0.8383  0.0297  -1.0634   0.0000   0.0000   0.0000   0.7282
  -4.370   0.2045   0.07501   0.07194  -0.0951  0.8378  0.0297  -1.0631   0.0000   0.0000   0.0000   0.7258
  -4.360   0.2064   0.07481   0.07173  -0.0955  0.8372  0.0298  -1.0628   0.0000   0.0000   0.0000   0.7234
  -4.350   0.2084   0.07460   0.07151  -0.0959  0.8367  0.0298  -1.0625   0.0000   0.0000   0.0000   0.7210
  -4.340   0.2104   0.07439   0.07130  -0.0964  0.8362  0.0298  -1.0621   0.0000   0.0000   0.0000   0.7186
  -4.330   0.2124   0.07417   0.07108  -0.0968  0.8356  0.0298  -1.0618   0.0000   0.0000   0.0000   0.7162
  -4.320   0.2145   0.07395   0.07086  -0.0973  0.8351  0.0298  -1.0614   0.0000   0.0000   0.0000   0.7137
  -4.310   0.2166   0.07373   0.07063  -0.0977  0.8346  0.0298  -1.0610   0.0000   0.0000   0.0000   0.7113
  -4.300   0.2188   0.07351   0.07040  -0.0982  0.8341  0.0298  -1.0606   0.0000   0.0000   0.0000   0.7089
  -4.290   0.2211   0.07327   0.07016  -0.0987  0.8335  0.0298  -1.0602   0.0000   0.0000   0.0000   0.7065
  -4.280   0.2234   0.07304   0.06992  -0.0992  0.8330  0.0298  -1.0598   0.0000   0.0000   0.0000   0.7041
  -4.270   0.2244   0.07290   0.06978  -0.0994  0.8320  0.0298  -1.0598   0.0000   0.0000   0.0000   0.7028
  -4.260   0.2246   0.07282   0.06970  -0.0994  0.8306  0.0298  -1.0602   0.0000   0.0000   0.0000   0.7023
  -4.250   0.2251   0.07272   0.06960  -0.0995  0.8292  0.0298  -1.0605   0.0000   0.0000   0.0000   0.7016
  -4.240   0.2258   0.07260   0.06948  -0.0996  0.8279  0.0298  -1.0607   0.0000   0.0000   0.0000   0.7006
  -4.230   0.2268   0.07246   0.06934  -0.0997  0.8267  0.0298  -1.0608   0.0000   0.0000   0.0000   0.6994
  -4.220   0.2279   0.07231   0.06919  -0.1000  0.8255  0.0299  -1.0608   0.0000   0.0000   0.0000   0.6981
  -4.210   0.2292   0.07215   0.06902  -0.1002  0.8243  0.0299  -1.0608   0.0000   0.0000   0.0000   0.6967
  -4.200   0.2307   0.07198   0.06885  -0.1005  0.8232  0.0299  -1.0607   0.0000   0.0000   0.0000   0.6951
  -4.190   0.2322   0.07180   0.06866  -0.1009  0.8221  0.0299  -1.0606   0.0000   0.0000   0.0000   0.6935
  -4.180   0.2340   0.07161   0.06846  -0.1012  0.8210  0.0299  -1.0604   0.0000   0.0000   0.0000   0.6918
  -4.170   0.2358   0.07141   0.06826  -0.1016  0.8200  0.0299  -1.0602   0.0000   0.0000   0.0000   0.6900
  -4.160   0.2378   0.07120   0.06805  -0.1021  0.8189  0.0299  -1.0599   0.0000   0.0000   0.0000   0.6882
  -4.150   0.2398   0.07098   0.06783  -0.1025  0.8179  0.0299  -1.0596   0.0000   0.0000   0.0000   0.6863
  -4.140   0.2420   0.07076   0.06760  -0.1030  0.8169  0.0299  -1.0593   0.0000   0.0000   0.0000   0.6843
  -4.130   0.2443   0.07053   0.06736  -0.1035  0.8159  0.0299  -1.0589   0.0000   0.0000   0.0000   0.6824
  -4.120   0.2467   0.07029   0.06712  -0.1041  0.8149  0.0299  -1.0585   0.0000   0.0000   0.0000   0.6803
  -4.110   0.2493   0.07005   0.06686  -0.1046  0.8140  0.0299  -1.0581   0.0000   0.0000   0.0000   0.6783
  -4.100   0.2519   0.06980   0.06661  -0.1052  0.8130  0.0299  -1.0576   0.0000   0.0000   0.0000   0.6762
  -4.090   0.2546   0.06954   0.06634  -0.1059  0.8121  0.0299  -1.0571   0.0000   0.0000   0.0000   0.6742
  -4.080   0.2574   0.06928   0.06608  -0.1065  0.8112  0.0299  -1.0566   0.0000   0.0000   0.0000   0.6721
  -4.070   0.2603   0.06901   0.06580  -0.1072  0.8102  0.0299  -1.0560   0.0000   0.0000   0.0000   0.6699
  -4.060   0.2633   0.06874   0.06552  -0.1079  0.8093  0.0300  -1.0555   0.0000   0.0000   0.0000   0.6678
  -4.050   0.2664   0.06846   0.06523  -0.1086  0.8084  0.0300  -1.0549   0.0000   0.0000   0.0000   0.6657
  -4.040   0.2696   0.06818   0.06493  -0.1094  0.8075  0.0300  -1.0543   0.0000   0.0000   0.0000   0.6636
  -4.030   0.2728   0.06789   0.06464  -0.1101  0.8066  0.0300  -1.0536   0.0000   0.0000   0.0000   0.6615
  -4.020   0.2761   0.06760   0.06434  -0.1109  0.8057  0.0300  -1.0530   0.0000   0.0000   0.0000   0.6594
  -4.010   0.2795   0.06731   0.06403  -0.1117  0.8047  0.0300  -1.0523   0.0000   0.0000   0.0000   0.6574
  -4.000   0.2822   0.06706   0.06378  -0.1123  0.8036  0.0300  -1.0519   0.0000   0.0000   0.0000   0.6557
  -3.990   0.2835   0.06691   0.06362  -0.1126  0.8020  0.0300  -1.0520   0.0000   0.0000   0.0000   0.6547
  -3.980   0.2851   0.06673   0.06344  -0.1130  0.8004  0.0300  -1.0519   0.0000   0.0000   0.0000   0.6536
  -3.970   0.2869   0.06655   0.06325  -0.1134  0.7988  0.0300  -1.0518   0.0000   0.0000   0.0000   0.6525
  -3.960   0.2889   0.06635   0.06304  -0.1138  0.7971  0.0300  -1.0517   0.0000   0.0000   0.0000   0.6512
  -3.950   0.2911   0.06614   0.06283  -0.1143  0.7955  0.0300  -1.0515   0.0000   0.0000   0.0000   0.6499
  -3.940   0.2934   0.06592   0.06260  -0.1148  0.7939  0.0300  -1.0512   0.0000   0.0000   0.0000   0.6485
  -3.930   0.2959   0.06569   0.06236  -0.1154  0.7922  0.0300  -1.0509   0.0000   0.0000   0.0000   0.6471
  -3.920   0.2985   0.06545   0.06211  -0.1160  0.7906  0.0300  -1.0506   0.0000   0.0000   0.0000   0.6456
  -3.910   0.3012   0.06521   0.06185  -0.1166  0.7889  0.0300  -1.0502   0.0000   0.0000   0.0000   0.6442
  -3.900   0.3041   0.06495   0.06159  -0.1173  0.7872  0.0300  -1.0498   0.0000   0.0000   0.0000   0.6427
  -3.890   0.3071   0.06469   0.06131  -0.1180  0.7855  0.0300  -1.0493   0.0000   0.0000   0.0000   0.6411
  -3.880   0.3103   0.06442   0.06103  -0.1188  0.7839  0.0300  -1.0488   0.0000   0.0000   0.0000   0.6395
  -3.870   0.3136   0.06414   0.06073  -0.1196  0.7822  0.0300  -1.0483   0.0000   0.0000   0.0000   0.6379
  -3.860   0.3171   0.06385   0.06043  -0.1204  0.7805  0.0301  -1.0477   0.0000   0.0000   0.0000   0.6363
  -3.850   0.3207   0.06355   0.06011  -0.1213  0.7789  0.0301  -1.0471   0.0000   0.0000   0.0000   0.6347
  -3.840   0.3246   0.06324   0.05979  -0.1222  0.7772  0.0301  -1.0464   0.0000   0.0000   0.0000   0.6330
  -3.830   0.3286   0.06292   0.05945  -0.1232  0.7756  0.0301  -1.0457   0.0000   0.0000   0.0000   0.6313
  -3.820   0.3327   0.06259   0.05910  -0.1242  0.7740  0.0301  -1.0450   0.0000   0.0000   0.0000   0.6296
  -3.810   0.3303   0.06174   0.05828  -0.1244  0.7741  0.0303  -1.0795   0.0000   0.0000   0.0000   0.6329
  -3.800   0.3264   0.06080   0.05734  -0.1243  0.7745  0.0305  -1.1169   0.0000   0.0000   0.0000   0.6374
  -3.790   0.3263   0.06018   0.05672  -0.1247  0.7739  0.0307  -1.1317   0.0000   0.0000   0.0000   0.6386
  -3.780   0.3268   0.05982   0.05635  -0.1249  0.7725  0.0308  -1.1372   0.0000   0.0000   0.0000   0.6387
  -3.770   0.3275   0.05952   0.05605  -0.1251  0.7709  0.0309  -1.1401   0.0000   0.0000   0.0000   0.6386
  -3.760   0.3285   0.05925   0.05577  -0.1254  0.7691  0.0310  -1.1415   0.0000   0.0000   0.0000   0.6382
  -3.750   0.3298   0.05898   0.05549  -0.1257  0.7673  0.0311  -1.1417   0.0000   0.0000   0.0000   0.6376
  -3.740   0.3312   0.05873   0.05523  -0.1260  0.7653  0.0312  -1.1409   0.0000   0.0000   0.0000   0.6369
  -3.730   0.3328   0.05849   0.05498  -0.1264  0.7633  0.0313  -1.1394   0.0000   0.0000   0.0000   0.6361
  -3.720   0.3346   0.05826   0.05474  -0.1268  0.7612  0.0313  -1.1372   0.0000   0.0000   0.0000   0.6352
  -3.710   0.3365   0.05805   0.05451  -0.1271  0.7590  0.0314  -1.1333   0.0000   0.0000   0.0000   0.6340
  -3.700   0.3386   0.05786   0.05431  -0.1274  0.7567  0.0315  -1.1264   0.0000   0.0000   0.0000   0.6325
  -3.690   0.3407   0.05769   0.05412  -0.1277  0.7543  0.0316  -1.1193   0.0000   0.0000   0.0000   0.6309
  -3.680   0.3430   0.05751   0.05393  -0.1280  0.7520  0.0317  -1.1120   0.0000   0.0000   0.0000   0.6294
  -3.670   0.3453   0.05734   0.05374  -0.1284  0.7496  0.0317  -1.1047   0.0000   0.0000   0.0000   0.6278
  -3.660   0.3477   0.05717   0.05355  -0.1287  0.7472  0.0318  -1.0971   0.0000   0.0000   0.0000   0.6262
  -3.650   0.3503   0.05700   0.05336  -0.1291  0.7449  0.0319  -1.0893   0.0000   0.0000   0.0000   0.6246
  -3.640   0.3530   0.05683   0.05316  -0.1296  0.7426  0.0320  -1.0814   0.0000   0.0000   0.0000   0.6229
  -3.630   0.3548   0.05670   0.05302  -0.1298  0.7404  0.0321  -1.0756   0.0000   0.0000   0.0000   0.6217
  -3.620   0.3560   0.05660   0.05291  -0.1299  0.7380  0.0321  -1.0714   0.0000   0.0000   0.0000   0.6208
  -3.610   0.3571   0.05650   0.05280  -0.1300  0.7356  0.0322  -1.0672   0.0000   0.0000   0.0000   0.6199
  -3.600   0.3584   0.05640   0.05268  -0.1302  0.7331  0.0322  -1.0629   0.0000   0.0000   0.0000   0.6190
  -3.590   0.3596   0.05630   0.05257  -0.1303  0.7306  0.0323  -1.0586   0.0000   0.0000   0.0000   0.6181
  -3.580   0.3609   0.05620   0.05245  -0.1305  0.7281  0.0323  -1.0543   0.0000   0.0000   0.0000   0.6171
  -3.570   0.3623   0.05610   0.05234  -0.1306  0.7255  0.0324  -1.0499   0.0000   0.0000   0.0000   0.6162
  -3.560   0.3636   0.05600   0.05223  -0.1308  0.7229  0.0324  -1.0453   0.0000   0.0000   0.0000   0.6152
  -3.550   0.3650   0.05590   0.05211  -0.1310  0.7204  0.0325  -1.0404   0.0000   0.0000   0.0000   0.6143
  -3.540   0.3665   0.05581   0.05200  -0.1311  0.7179  0.0325  -1.0356   0.0000   0.0000   0.0000   0.6133
  -3.530   0.3679   0.05571   0.05188  -0.1313  0.7154  0.0326  -1.0308   0.0000   0.0000   0.0000   0.6123
  -3.520   0.3694   0.05562   0.05177  -0.1315  0.7130  0.0327  -1.0260   0.0000   0.0000   0.0000   0.6113
  -3.510   0.3710   0.05552   0.05165  -0.1317  0.7107  0.0327  -1.0212   0.0000   0.0000   0.0000   0.6103
  -3.500   0.3725   0.05542   0.05153  -0.1319  0.7085  0.0328  -1.0164   0.0000   0.0000   0.0000   0.6093
  -3.490   0.3733   0.05535   0.05145  -0.1319  0.7064  0.0328  -1.0135   0.0000   0.0000   0.0000   0.6087
  -3.480   0.3739   0.05528   0.05137  -0.1319  0.7043  0.0329  -1.0108   0.0000   0.0000   0.0000   0.6081
  -3.470   0.3746   0.05522   0.05130  -0.1320  0.7021  0.0329  -1.0081   0.0000   0.0000   0.0000   0.6075
  -3.460   0.3753   0.05515   0.05122  -0.1320  0.6999  0.0329  -1.0055   0.0000   0.0000   0.0000   0.6069
  -3.450   0.3760   0.05508   0.05114  -0.1320  0.6977  0.0330  -1.0028   0.0000   0.0000   0.0000   0.6063
  -3.440   0.3766   0.05501   0.05106  -0.1320  0.6955  0.0330  -1.0002   0.0000   0.0000   0.0000   0.6057
  -3.430   0.3773   0.05495   0.05098  -0.1321  0.6932  0.0331  -0.9976   0.0000   0.0000   0.0000   0.6051
  -3.420   0.3780   0.05488   0.05090  -0.1321  0.6910  0.0331  -0.9950   0.0000   0.0000   0.0000   0.6045
  -3.410   0.3787   0.05481   0.05082  -0.1321  0.6889  0.0332  -0.9925   0.0000   0.0000   0.0000   0.6039
  -3.400   0.3794   0.05475   0.05074  -0.1322  0.6867  0.0332  -0.9901   0.0000   0.0000   0.0000   0.6033
  -3.390   0.3801   0.05468   0.05066  -0.1322  0.6846  0.0333  -0.9875   0.0000   0.0000   0.0000   0.6027
  -3.380   0.3808   0.05462   0.05059  -0.1322  0.6825  0.0333  -0.9850   0.0000   0.0000   0.0000   0.6022
  -3.370   0.3816   0.05455   0.05050  -0.1323  0.6805  0.0333  -0.9824   0.0000   0.0000   0.0000   0.6016
  -3.360   0.3823   0.05449   0.05042  -0.1323  0.6785  0.0334  -0.9799   0.0000   0.0000   0.0000   0.6010
  -3.350   0.3831   0.05443   0.05034  -0.1324  0.6766  0.0334  -0.9774   0.0000   0.0000   0.0000   0.6004
  -3.340   0.3838   0.05436   0.05026  -0.1324  0.6747  0.0335  -0.9750   0.0000   0.0000   0.0000   0.5998
  -3.330   0.3845   0.05430   0.05018  -0.1325  0.6730  0.0335  -0.9728   0.0000   0.0000   0.0000   0.5993
  -3.320   0.3849   0.05424   0.05012  -0.1325  0.6714  0.0336  -0.9709   0.0000   0.0000   0.0000   0.5988
  -3.310   0.3854   0.05417   0.05005  -0.1325  0.6697  0.0336  -0.9690   0.0000   0.0000   0.0000   0.5983
  -3.300   0.3859   0.05411   0.04998  -0.1325  0.6680  0.0337  -0.9672   0.0000   0.0000   0.0000   0.5979
  -3.290   0.3864   0.05405   0.04991  -0.1325  0.6663  0.0337  -0.9654   0.0000   0.0000   0.0000   0.5974
  -3.280   0.3869   0.05399   0.04984  -0.1325  0.6646  0.0337  -0.9636   0.0000   0.0000   0.0000   0.5969
  -3.270   0.3874   0.05392   0.04977  -0.1325  0.6630  0.0338  -0.9619   0.0000   0.0000   0.0000   0.5965
  -3.260   0.3879   0.05386   0.04970  -0.1325  0.6613  0.0338  -0.9602   0.0000   0.0000   0.0000   0.5960
  -3.250   0.3883   0.05380   0.04963  -0.1324  0.6596  0.0339  -0.9585   0.0000   0.0000   0.0000   0.5956
  -3.240   0.3888   0.05374   0.04956  -0.1324  0.6579  0.0339  -0.9569   0.0000   0.0000   0.0000   0.5951
  -3.230   0.3893   0.05368   0.04949  -0.1324  0.6563  0.0340  -0.9553   0.0000   0.0000   0.0000   0.5947
  -3.220   0.3897   0.05362   0.04942  -0.1324  0.6547  0.0340  -0.9537   0.0000   0.0000   0.0000   0.5943
  -3.210   0.3902   0.05356   0.04935  -0.1324  0.6530  0.0340  -0.9542   0.0000   0.0000   0.0000   0.5938
  -3.200   0.3907   0.05350   0.04928  -0.1325  0.6514  0.0341  -0.9547   0.0000   0.0000   0.0000   0.5934
  -3.190   0.3912   0.05344   0.04921  -0.1325  0.6499  0.0341  -0.9552   0.0000   0.0000   0.0000   0.5929
  -3.180   0.3917   0.05338   0.04914  -0.1325  0.6483  0.0342  -0.9557   0.0000   0.0000   0.0000   0.5925
  -3.170   0.3922   0.05332   0.04907  -0.1325  0.6468  0.0342  -0.9562   0.0000   0.0000   0.0000   0.5921
  -3.160   0.3927   0.05326   0.04900  -0.1325  0.6453  0.0343  -0.9567   0.0000   0.0000   0.0000   0.5916
  -3.150   0.3932   0.05320   0.04892  -0.1325  0.6438  0.0343  -0.9572   0.0000   0.0000   0.0000   0.5912
  -3.140   0.3937   0.05314   0.04885  -0.1325  0.6423  0.0344  -0.9577   0.0000   0.0000   0.0000   0.5908
  -3.130   0.3943   0.05308   0.04878  -0.1326  0.6409  0.0344  -0.9582   0.0000   0.0000   0.0000   0.5903
  -3.120   0.3948   0.05302   0.04870  -0.1326  0.6395  0.0345  -0.9587   0.0000   0.0000   0.0000   0.5899
  -3.110   0.3954   0.05296   0.04863  -0.1326  0.6382  0.0345  -0.9593   0.0000   0.0000   0.0000   0.5895
  -3.100   0.3959   0.05289   0.04855  -0.1326  0.6370  0.0345  -0.9597   0.0000   0.0000   0.0000   0.5891
  -3.090   0.3965   0.05282   0.04848  -0.1327  0.6359  0.0346  -0.9602   0.0000   0.0000   0.0000   0.5887
  -3.080   0.3970   0.05275   0.04841  -0.1327  0.6347  0.0346  -0.9607   0.0000   0.0000   0.0000   0.5882
  -3.070   0.3975   0.05268   0.04833  -0.1327  0.6335  0.0347  -0.9612   0.0000   0.0000   0.0000   0.5878
  -3.060   0.3981   0.05261   0.04826  -0.1328  0.6323  0.0347  -0.9617   0.0000   0.0000   0.0000   0.5874
  -3.050   0.3986   0.05254   0.04818  -0.1328  0.6312  0.0348  -0.9622   0.0000   0.0000   0.0000   0.5870
  -3.040   0.3992   0.05247   0.04811  -0.1328  0.6300  0.0348  -0.9627   0.0000   0.0000   0.0000   0.5866
  -3.030   0.3998   0.05240   0.04803  -0.1329  0.6288  0.0349  -0.9632   0.0000   0.0000   0.0000   0.5862
  -3.020   0.4003   0.05233   0.04796  -0.1329  0.6276  0.0349  -0.9637   0.0000   0.0000   0.0000   0.5858
  -3.010   0.4009   0.05226   0.04788  -0.1329  0.6264  0.0350  -0.9642   0.0000   0.0000   0.0000   0.5854
  -3.000   0.4014   0.05219   0.04781  -0.1330  0.6253  0.0351  -0.9647   0.0000   0.0000   0.0000   0.5850
  -2.990   0.4020   0.05212   0.04773  -0.1330  0.6241  0.0351  -0.9652   0.0000   0.0000   0.0000   0.5846
  -2.980   0.4026   0.05205   0.04765  -0.1331  0.6229  0.0352  -0.9657   0.0000   0.0000   0.0000   0.5842
  -2.970   0.4031   0.05198   0.04758  -0.1331  0.6218  0.0352  -0.9662   0.0000   0.0000   0.0000   0.5838
  -2.960   0.4037   0.05191   0.04750  -0.1332  0.6206  0.0353  -0.9667   0.0000   0.0000   0.0000   0.5834
  -2.950   0.4043   0.05184   0.04742  -0.1332  0.6195  0.0353  -0.9673   0.0000   0.0000   0.0000   0.5831
  -2.940   0.4049   0.05177   0.04734  -0.1333  0.6184  0.0354  -0.9678   0.0000   0.0000   0.0000   0.5827
  -2.930   0.4055   0.05169   0.04726  -0.1333  0.6172  0.0354  -0.9683   0.0000   0.0000   0.0000   0.5823
  -2.920   0.4061   0.05162   0.04718  -0.1334  0.6161  0.0355  -0.9688   0.0000   0.0000   0.0000   0.5819
  -2.910   0.4068   0.05155   0.04710  -0.1334  0.6150  0.0355  -0.9693   0.0000   0.0000   0.0000   0.5815
  -2.900   0.4074   0.05148   0.04702  -0.1335  0.6139  0.0356  -0.9699   0.0000   0.0000   0.0000   0.5811
  -2.890   0.4080   0.05140   0.04694  -0.1336  0.6129  0.0357  -0.9704   0.0000   0.0000   0.0000   0.5807
  -2.880   0.4087   0.05133   0.04686  -0.1336  0.6118  0.0357  -0.9709   0.0000   0.0000   0.0000   0.5803
  -2.870   0.4093   0.05126   0.04678  -0.1337  0.6107  0.0358  -0.9715   0.0000   0.0000   0.0000   0.5800
  -2.860   0.4100   0.05118   0.04669  -0.1338  0.6097  0.0358  -0.9720   0.0000   0.0000   0.0000   0.5796
  -2.850   0.4107   0.05111   0.04661  -0.1338  0.6086  0.0359  -0.9726   0.0000   0.0000   0.0000   0.5792
  -2.840   0.4114   0.05104   0.04653  -0.1339  0.6076  0.0360  -0.9731   0.0000   0.0000   0.0000   0.5788
  -2.830   0.4121   0.05096   0.04644  -0.1340  0.6066  0.0360  -0.9737   0.0000   0.0000   0.0000   0.5784
  -2.820   0.4128   0.05088   0.04636  -0.1341  0.6055  0.0361  -0.9742   0.0000   0.0000   0.0000   0.5781
  -2.810   0.4135   0.05081   0.04627  -0.1342  0.6045  0.0362  -0.9748   0.0000   0.0000   0.0000   0.5777
  -2.800   0.4142   0.05073   0.04618  -0.1343  0.6035  0.0362  -0.9754   0.0000   0.0000   0.0000   0.5773
  -2.790   0.4150   0.05065   0.04610  -0.1344  0.6025  0.0363  -0.9759   0.0000   0.0000   0.0000   0.5769
  -2.780   0.4158   0.05057   0.04601  -0.1345  0.6015  0.0364  -0.9765   0.0000   0.0000   0.0000   0.5765
  -2.770   0.4166   0.05048   0.04592  -0.1346  0.6008  0.0364  -0.9771   0.0000   0.0000   0.0000   0.5761
  -2.760   0.4174   0.05039   0.04583  -0.1347  0.6001  0.0365  -0.9777   0.0000   0.0000   0.0000   0.5758
  -2.750   0.4182   0.05030   0.04573  -0.1348  0.5993  0.0366  -0.9783   0.0000   0.0000   0.0000   0.5754
  -2.740   0.4191   0.05021   0.04564  -0.1350  0.5986  0.0366  -0.9789   0.0000   0.0000   0.0000   0.5750
  -2.730   0.4199   0.05012   0.04555  -0.1351  0.5978  0.0367  -0.9795   0.0000   0.0000   0.0000   0.5746
  -2.720   0.4208   0.05003   0.04545  -0.1352  0.5971  0.0368  -0.9802   0.0000   0.0000   0.0000   0.5742
  -2.710   0.4216   0.04994   0.04536  -0.1353  0.5963  0.0369  -0.9808   0.0000   0.0000   0.0000   0.5739
  -2.700   0.4225   0.04985   0.04526  -0.1355  0.5955  0.0369  -0.9814   0.0000   0.0000   0.0000   0.5735
  -2.690   0.4234   0.04975   0.04517  -0.1356  0.5947  0.0370  -0.9820   0.0000   0.0000   0.0000   0.5731
  -2.680   0.4243   0.04966   0.04507  -0.1357  0.5940  0.0371  -0.9826   0.0000   0.0000   0.0000   0.5728
  -2.670   0.4252   0.04957   0.04498  -0.1359  0.5932  0.0372  -0.9833   0.0000   0.0000   0.0000   0.5724
  -2.660   0.4261   0.04947   0.04488  -0.1360  0.5924  0.0373  -0.9839   0.0000   0.0000   0.0000   0.5720
  -2.650   0.4270   0.04938   0.04478  -0.1362  0.5916  0.0373  -0.9846   0.0000   0.0000   0.0000   0.5717
  -2.640   0.4279   0.04928   0.04468  -0.1363  0.5908  0.0374  -0.9852   0.0000   0.0000   0.0000   0.5713
  -2.630   0.4289   0.04918   0.04458  -0.1365  0.5901  0.0375  -0.9859   0.0000   0.0000   0.0000   0.5709
  -2.620   0.4299   0.04909   0.04448  -0.1367  0.5893  0.0376  -0.9865   0.0000   0.0000   0.0000   0.5706
  -2.610   0.4309   0.04899   0.04437  -0.1368  0.5885  0.0377  -0.9872   0.0000   0.0000   0.0000   0.5702
  -2.600   0.4319   0.04889   0.04427  -0.1370  0.5877  0.0378  -0.9879   0.0000   0.0000   0.0000   0.5698
  -2.590   0.4329   0.04879   0.04417  -0.1372  0.5869  0.0379  -0.9885   0.0000   0.0000   0.0000   0.5695
  -2.580   0.4339   0.04869   0.04406  -0.1374  0.5862  0.0380  -0.9892   0.0000   0.0000   0.0000   0.5691
[...]
  14.970   2.2245   0.05828   0.05341  -0.1817  0.2237  1.0000  -4.7047   0.0000   0.0000   0.0000   0.2989
  14.980   2.2243   0.05841   0.05355  -0.1817  0.2233  1.0000  -4.7064   0.0000   0.0000   0.0000   0.2989
  14.990   2.2241   0.05854   0.05370  -0.1816  0.2230  1.0000  -4.7081   0.0000   0.0000   0.0000   0.2988
  15.000   2.2239   0.05867   0.05384  -0.1815  0.2226  1.0000  -4.7098   0.0000   0.0000   0.0000   0.2988
  15.010   2.2236   0.05881   0.05398  -0.1815  0.2223  1.0000  -4.7114   0.0000   0.0000   0.0000   0.2987
  15.020   2.2233   0.05894   0.05412  -0.1814  0.2219  1.0000  -4.7130   0.0000   0.0000   0.0000   0.2987
  15.030   2.2231   0.05908   0.05427  -0.1813  0.2215  1.0000  -4.7146   0.0000   0.0000   0.0000   0.2986
  15.040   2.2228   0.05922   0.05441  -0.1813  0.2211  1.0000  -4.7162   0.0000   0.0000   0.0000   0.2986
  15.050   2.2225   0.05936   0.05456  -0.1812  0.2207  1.0000  -4.7177   0.0000   0.0000   0.0000   0.2985
  15.060   2.2222   0.05950   0.05470  -0.1811  0.2203  1.0000  -4.7192   0.0000   0.0000   0.0000   0.2985
  15.070   2.2219   0.05964   0.05485  -0.1811  0.2199  1.0000  -4.7207   0.0000   0.0000   0.0000   0.2984
  15.080   2.2216   0.05978   0.05500  -0.1810  0.2195  1.0000  -4.7221   0.0000   0.0000   0.0000   0.2984
  15.090   2.2212   0.05993   0.05515  -0.1809  0.2191  1.0000  -4.7236   0.0000   0.0000   0.0000   0.2983
  15.100   2.2209   0.06007   0.05530  -0.1809  0.2186  1.0000  -4.7250   0.0000   0.0000   0.0000   0.2983
  15.110   2.2205   0.06022   0.05545  -0.1808  0.2182  1.0000  -4.7263   0.0000   0.0000   0.0000   0.2982
  15.120   2.2202   0.06037   0.05561  -0.1807  0.2178  1.0000  -4.7276   0.0000   0.0000   0.0000   0.2982
  15.130   2.2198   0.06052   0.05576  -0.1807  0.2174  1.0000  -4.7289   0.0000   0.0000   0.0000   0.2982
  15.140   2.2194   0.06068   0.05592  -0.1806  0.2169  1.0000  -4.7302   0.0000   0.0000   0.0000   0.2981
  15.150   2.2190   0.06083   0.05608  -0.1805  0.2165  1.0000  -4.7314   0.0000   0.0000   0.0000   0.2981
  15.160   2.2185   0.06099   0.05624  -0.1805  0.2160  1.0000  -4.7326   0.0000   0.0000   0.0000   0.2980
  15.170   2.2181   0.06114   0.05640  -0.1804  0.2156  1.0000  -4.7337   0.0000   0.0000   0.0000   0.2980
  15.180   2.2176   0.06131   0.05656  -0.1803  0.2152  1.0000  -4.7348   0.0000   0.0000   0.0000   0.2979
  15.190   2.2171   0.06147   0.05673  -0.1803  0.2147  1.0000  -4.7358   0.0000   0.0000   0.0000   0.2979
  15.200   2.2165   0.06165   0.05691  -0.1802  0.2143  1.0000  -4.7366   0.0000   0.0000   0.0000   0.2979
  15.210   2.2160   0.06182   0.05709  -0.1801  0.2139  1.0000  -4.7374   0.0000   0.0000   0.0000   0.2978
  15.220   2.2154   0.06200   0.05727  -0.1801  0.2135  1.0000  -4.7381   0.0000   0.0000   0.0000   0.2978
  15.230   2.2147   0.06219   0.05746  -0.1800  0.2131  1.0000  -4.7388   0.0000   0.0000   0.0000   0.2978
  15.240   2.2141   0.06237   0.05765  -0.1799  0.2126  1.0000  -4.7393   0.0000   0.0000   0.0000   0.2977
  15.250   2.2134   0.06256   0.05784  -0.1799  0.2122  1.0000  -4.7399   0.0000   0.0000   0.0000   0.2977
  15.260   2.2127   0.06275   0.05803  -0.1798  0.2118  1.0000  -4.7404   0.0000   0.0000   0.0000   0.2977
  15.270   2.2120   0.06294   0.05822  -0.1797  0.2114  1.0000  -4.7409   0.0000   0.0000   0.0000   0.2976
  15.280   2.2113   0.06314   0.05842  -0.1797  0.2110  1.0000  -4.7414   0.0000   0.0000   0.0000   0.2976
  15.290   2.2106   0.06333   0.05861  -0.1796  0.2106  1.0000  -4.7418   0.0000   0.0000   0.0000   0.2976
  15.300   2.2099   0.06353   0.05881  -0.1795  0.2102  1.0000  -4.7422   0.0000   0.0000   0.0000   0.2975
  15.310   2.2092   0.06372   0.05901  -0.1795  0.2098  1.0000  -4.7426   0.0000   0.0000   0.0000   0.2975
  15.320   2.2085   0.06392   0.05921  -0.1794  0.2094  1.0000  -4.7430   0.0000   0.0000   0.0000   0.2975
  15.330   2.2077   0.06412   0.05941  -0.1793  0.2090  1.0000  -4.7433   0.0000   0.0000   0.0000   0.2974
  15.340   2.2070   0.06432   0.05961  -0.1793  0.2086  1.0000  -4.7436   0.0000   0.0000   0.0000   0.2974
  15.350   2.2062   0.06452   0.05981  -0.1792  0.2082  1.0000  -4.7439   0.0000   0.0000   0.0000   0.2974
  15.360   2.2054   0.06473   0.06001  -0.1792  0.2078  1.0000  -4.7442   0.0000   0.0000   0.0000   0.2973
  15.370   2.2047   0.06493   0.06022  -0.1791  0.2074  1.0000  -4.7444   0.0000   0.0000   0.0000   0.2973
  15.380   2.2039   0.06514   0.06042  -0.1790  0.2071  1.0000  -4.7447   0.0000   0.0000   0.0000   0.2973
  15.390   2.2031   0.06535   0.06063  -0.1790  0.2067  1.0000  -4.7448   0.0000   0.0000   0.0000   0.2973
  15.400   2.2023   0.06556   0.06084  -0.1789  0.2063  1.0000  -4.7450   0.0000   0.0000   0.0000   0.2972
  15.410   2.2015   0.06577   0.06105  -0.1788  0.2059  1.0000  -4.7451   0.0000   0.0000   0.0000   0.2972
  15.420   2.2006   0.06598   0.06127  -0.1788  0.2055  1.0000  -4.7452   0.0000   0.0000   0.0000   0.2972
  15.430   2.1997   0.06620   0.06149  -0.1787  0.2051  1.0000  -4.7452   0.0000   0.0000   0.0000   0.2972
  15.440   2.1988   0.06643   0.06172  -0.1787  0.2048  1.0000  -4.7450   0.0000   0.0000   0.0000   0.2971
  15.450   2.1979   0.06666   0.06195  -0.1786  0.2044  1.0000  -4.7447   0.0000   0.0000   0.0000   0.2971
  15.460   2.1969   0.06690   0.06219  -0.1786  0.2041  1.0000  -4.7444   0.0000   0.0000   0.0000   0.2971
  15.470   2.1959   0.06714   0.06243  -0.1785  0.2037  1.0000  -4.7440   0.0000   0.0000   0.0000   0.2971
  15.480   2.1949   0.06738   0.06267  -0.1785  0.2034  1.0000  -4.7435   0.0000   0.0000   0.0000   0.2971
  15.490   2.1939   0.06762   0.06291  -0.1784  0.2031  1.0000  -4.7431   0.0000   0.0000   0.0000   0.2970
  15.500   2.1929   0.06787   0.06315  -0.1784  0.2027  1.0000  -4.7427   0.0000   0.0000   0.0000   0.2970
  15.510   2.1919   0.06811   0.06339  -0.1783  0.2024  1.0000  -4.7423   0.0000   0.0000   0.0000   0.2970
  15.520   2.1909   0.06835   0.06363  -0.1783  0.2020  1.0000  -4.7418   0.0000   0.0000   0.0000   0.2970
  15.530   2.1899   0.06859   0.06388  -0.1782  0.2017  1.0000  -4.7414   0.0000   0.0000   0.0000   0.2970
  15.540   2.1889   0.06883   0.06412  -0.1782  0.2013  1.0000  -4.7410   0.0000   0.0000   0.0000   0.2970
  15.550   2.1879   0.06907   0.06436  -0.1781  0.2009  1.0000  -4.7406   0.0000   0.0000   0.0000   0.2970
  15.560   2.1869   0.06931   0.06459  -0.1781  0.2006  1.0000  -4.7402   0.0000   0.0000   0.0000   0.2969
  15.570   2.1859   0.06955   0.06483  -0.1780  0.2002  1.0000  -4.7399   0.0000   0.0000   0.0000   0.2969
  15.580   2.1850   0.06979   0.06507  -0.1780  0.1998  1.0000  -4.7395   0.0000   0.0000   0.0000   0.2969
  15.590   2.1840   0.07003   0.06531  -0.1779  0.1994  1.0000  -4.7392   0.0000   0.0000   0.0000   0.2969
  15.600   2.1831   0.07026   0.06554  -0.1779  0.1991  1.0000  -4.7389   0.0000   0.0000   0.0000   0.2969
  15.610   2.1822   0.07050   0.06578  -0.1779  0.1987  1.0000  -4.7386   0.0000   0.0000   0.0000   0.2969
  15.620   2.1816   0.07069   0.06597  -0.1778  0.1983  1.0000  -4.7394   0.0000   0.0000   0.0000   0.2968
  15.630   2.1813   0.07085   0.06614  -0.1778  0.1980  1.0000  -4.7407   0.0000   0.0000   0.0000   0.2968
  15.640   2.1810   0.07102   0.06632  -0.1778  0.1977  1.0000  -4.7420   0.0000   0.0000   0.0000   0.2968
  15.650   2.1806   0.07119   0.06650  -0.1777  0.1973  1.0000  -4.7431   0.0000   0.0000   0.0000   0.2968
  15.660   2.1802   0.07137   0.06668  -0.1777  0.1970  1.0000  -4.7441   0.0000   0.0000   0.0000   0.2967
  15.670   2.1797   0.07155   0.06687  -0.1777  0.1967  1.0000  -4.7451   0.0000   0.0000   0.0000   0.2967
  15.680   2.1792   0.07174   0.06707  -0.1777  0.1963  1.0000  -4.7459   0.0000   0.0000   0.0000   0.2967
  15.690   2.1787   0.07194   0.06728  -0.1777  0.1960  1.0000  -4.7465   0.0000   0.0000   0.0000   0.2967
  15.700   2.1781   0.07214   0.06748  -0.1776  0.1957  1.0000  -4.7471   0.0000   0.0000   0.0000   0.2967
  15.710   2.1775   0.07234   0.06769  -0.1776  0.1953  1.0000  -4.7477   0.0000   0.0000   0.0000   0.2966
  15.720   2.1769   0.07255   0.06791  -0.1776  0.1950  1.0000  -4.7482   0.0000   0.0000   0.0000   0.2966
  15.730   2.1763   0.07275   0.06812  -0.1776  0.1946  1.0000  -4.7486   0.0000   0.0000   0.0000   0.2966
  15.740   2.1757   0.07296   0.06833  -0.1775  0.1943  1.0000  -4.7491   0.0000   0.0000   0.0000   0.2966
  15.750   2.1750   0.07317   0.06855  -0.1775  0.1939  1.0000  -4.7495   0.0000   0.0000   0.0000   0.2966
  15.760   2.1744   0.07338   0.06876  -0.1775  0.1936  1.0000  -4.7499   0.0000   0.0000   0.0000   0.2966
  15.770   2.1737   0.07359   0.06898  -0.1775  0.1932  1.0000  -4.7503   0.0000   0.0000   0.0000   0.2966
  15.780   2.1731   0.07380   0.06920  -0.1775  0.1929  1.0000  -4.7507   0.0000   0.0000   0.0000   0.2965
  15.790   2.1724   0.07402   0.06941  -0.1774  0.1925  1.0000  -4.7510   0.0000   0.0000   0.0000   0.2965
  15.800   2.1717   0.07423   0.06963  -0.1774  0.1921  1.0000  -4.7513   0.0000   0.0000   0.0000   0.2965
  15.810   2.1710   0.07444   0.06985  -0.1774  0.1918  1.0000  -4.7517   0.0000   0.0000   0.0000   0.2965
  15.820   2.1704   0.07466   0.07007  -0.1774  0.1914  1.0000  -4.7519   0.0000   0.0000   0.0000   0.2965
  15.830   2.1697   0.07488   0.07029  -0.1774  0.1910  1.0000  -4.7522   0.0000   0.0000   0.0000   0.2965
  15.840   2.1690   0.07509   0.07051  -0.1774  0.1907  1.0000  -4.7525   0.0000   0.0000   0.0000   0.2965
  15.850   2.1683   0.07531   0.07073  -0.1773  0.1903  1.0000  -4.7527   0.0000   0.0000   0.0000   0.2965
  15.860   2.1676   0.07553   0.07096  -0.1773  0.1899  1.0000  -4.7529   0.0000   0.0000   0.0000   0.2964
  15.870   2.1668   0.07575   0.07118  -0.1773  0.1895  1.0000  -4.7531   0.0000   0.0000   0.0000   0.2964
  15.880   2.1661   0.07598   0.07141  -0.1773  0.1891  1.0000  -4.7532   0.0000   0.0000   0.0000   0.2964
  15.890   2.1654   0.07620   0.07164  -0.1773  0.1888  1.0000  -4.7533   0.0000   0.0000   0.0000   0.2964
  15.900   2.1646   0.07643   0.07187  -0.1773  0.1884  1.0000  -4.7534   0.0000   0.0000   0.0000   0.2964
  15.910   2.1638   0.07666   0.07210  -0.1773  0.1881  1.0000  -4.7534   0.0000   0.0000   0.0000   0.2964
  15.920   2.1630   0.07690   0.07235  -0.1773  0.1877  1.0000  -4.7532   0.0000   0.0000   0.0000   0.2964
  15.930   2.1621   0.07715   0.07260  -0.1773  0.1874  1.0000  -4.7529   0.0000   0.0000   0.0000   0.2964
  15.940   2.1611   0.07741   0.07286  -0.1772  0.1870  1.0000  -4.7525   0.0000   0.0000   0.0000   0.2964
  15.950   2.1602   0.07767   0.07312  -0.1772  0.1867  1.0000  -4.7520   0.0000   0.0000   0.0000   0.2964
  15.960   2.1592   0.07793   0.07339  -0.1772  0.1864  1.0000  -4.7514   0.0000   0.0000   0.0000   0.2964
  15.970   2.1582   0.07819   0.07365  -0.1772  0.1861  1.0000  -4.7508   0.0000   0.0000   0.0000   0.2964
  15.980   2.1572   0.07846   0.07392  -0.1772  0.1857  1.0000  -4.7502   0.0000   0.0000   0.0000   0.2964
  15.990   2.1562   0.07872   0.07418  -0.1772  0.1854  1.0000  -4.7496   0.0000   0.0000   0.0000   0.2965
  16.000   2.1553   0.07898   0.07445  -0.1772  0.1851  1.0000  -4.7490   0.0000   0.0000   0.0000   0.2965
  16.010   2.1543   0.07925   0.07471  -0.1772  0.1848  1.0000  -4.7484   0.0000   0.0000   0.0000   0.2965
  16.020   2.1533   0.07951   0.07498  -0.1772  0.1844  1.0000  -4.7479   0.0000   0.0000   0.0000   0.2965
  16.030   2.1523   0.07977   0.07524  -0.1773  0.1841  1.0000  -4.7473   0.0000   0.0000   0.0000   0.2965
  16.040   2.1514   0.08003   0.07551  -0.1773  0.1838  1.0000  -4.7467   0.0000   0.0000   0.0000   0.2965
  16.050   2.1504   0.08029   0.07577  -0.1773  0.1834  1.0000  -4.7461   0.0000   0.0000   0.0000   0.2965
  16.060   2.1494   0.08055   0.07603  -0.1773  0.1831  1.0000  -4.7456   0.0000   0.0000   0.0000   0.2965
  16.070   2.1485   0.08082   0.07630  -0.1773  0.1828  1.0000  -4.7450   0.0000   0.0000   0.0000   0.2965
  16.080   2.1475   0.08108   0.07656  -0.1773  0.1825  1.0000  -4.7444   0.0000   0.0000   0.0000   0.2965
  16.090   2.1465   0.08134   0.07683  -0.1773  0.1821  1.0000  -4.7438   0.0000   0.0000   0.0000   0.2965
  16.100   2.1455   0.08161   0.07709  -0.1773  0.1818  1.0000  -4.7431   0.0000   0.0000   0.0000   0.2966
  16.110   2.1445   0.08187   0.07736  -0.1773  0.1815  1.0000  -4.7425   0.0000   0.0000   0.0000   0.2966
  16.120   2.1435   0.08214   0.07762  -0.1773  0.1812  1.0000  -4.7418   0.0000   0.0000   0.0000   0.2966
  16.130   2.1425   0.08241   0.07790  -0.1773  0.1808  1.0000  -4.7410   0.0000   0.0000   0.0000   0.2966
  16.140   2.1414   0.08269   0.07818  -0.1773  0.1805  1.0000  -4.7401   0.0000   0.0000   0.0000   0.2966
  16.150   2.1403   0.08298   0.07846  -0.1773  0.1802  1.0000  -4.7390   0.0000   0.0000   0.0000   0.2966
  16.160   2.1391   0.08327   0.07876  -0.1774  0.1800  1.0000  -4.7378   0.0000   0.0000   0.0000   0.2967
  16.170   2.1379   0.08357   0.07907  -0.1774  0.1797  1.0000  -4.7365   0.0000   0.0000   0.0000   0.2967
  16.180   2.1367   0.08388   0.07937  -0.1774  0.1794  1.0000  -4.7351   0.0000   0.0000   0.0000   0.2967
  16.190   2.1354   0.08418   0.07968  -0.1774  0.1792  1.0000  -4.7338   0.0000   0.0000   0.0000   0.2967
  16.200   2.1342   0.08448   0.07998  -0.1774  0.1789  1.0000  -4.7324   0.0000   0.0000   0.0000   0.2968
  16.210   2.1330   0.08479   0.08029  -0.1775  0.1786  1.0000  -4.7311   0.0000   0.0000   0.0000   0.2968
  16.220   2.1318   0.08508   0.08059  -0.1775  0.1783  1.0000  -4.7298   0.0000   0.0000   0.0000   0.2968
  16.230   2.1307   0.08538   0.08089  -0.1775  0.1780  1.0000  -4.7286   0.0000   0.0000   0.0000   0.2968
  16.240   2.1295   0.08568   0.08118  -0.1775  0.1777  1.0000  -4.7274   0.0000   0.0000   0.0000   0.2969
  16.250   2.1283   0.08597   0.08148  -0.1776  0.1774  1.0000  -4.7261   0.0000   0.0000   0.0000   0.2969
  16.260   2.1272   0.08627   0.08177  -0.1776  0.1771  1.0000  -4.7250   0.0000   0.0000   0.0000   0.2969
  16.270   2.1260   0.08656   0.08206  -0.1776  0.1768  1.0000  -4.7238   0.0000   0.0000   0.0000   0.2969
  16.280   2.1249   0.08685   0.08235  -0.1776  0.1765  1.0000  -4.7226   0.0000   0.0000   0.0000   0.2970
  16.290   2.1238   0.08713   0.08264  -0.1777  0.1762  1.0000  -4.7215   0.0000   0.0000   0.0000   0.2970
  16.300   2.1227   0.08742   0.08293  -0.1777  0.1759  1.0000  -4.7204   0.0000   0.0000   0.0000   0.2970
  16.310   2.1215   0.08771   0.08322  -0.1777  0.1756  1.0000  -4.7193   0.0000   0.0000   0.0000   0.2970
  16.320   2.1204   0.08799   0.08350  -0.1777  0.1753  1.0000  -4.7181   0.0000   0.0000   0.0000   0.2971
  16.330   2.1193   0.08828   0.08379  -0.1778  0.1750  1.0000  -4.7171   0.0000   0.0000   0.0000   0.2971
  16.340   2.1182   0.08856   0.08407  -0.1778  0.1746  1.0000  -4.7160   0.0000   0.0000   0.0000   0.2971
  16.350   2.1172   0.08884   0.08435  -0.1778  0.1743  1.0000  -4.7149   0.0000   0.0000   0.0000   0.2971
  16.360   2.1161   0.08912   0.08463  -0.1778  0.1740  1.0000  -4.7138   0.0000   0.0000   0.0000   0.2972
  16.370   2.1149   0.08941   0.08492  -0.1779  0.1736  1.0000  -4.7127   0.0000   0.0000   0.0000   0.2972
  16.380   2.1138   0.08970   0.08522  -0.1779  0.1733  1.0000  -4.7114   0.0000   0.0000   0.0000   0.2972
  16.390   2.1126   0.08999   0.08551  -0.1779  0.1730  1.0000  -4.7101   0.0000   0.0000   0.0000   0.2973
  16.400   2.1118   0.09025   0.08577  -0.1780  0.1728  1.0000  -4.7097   0.0000   0.0000   0.0000   0.2973
  16.410   2.1112   0.09048   0.08601  -0.1780  0.1725  1.0000  -4.7098   0.0000   0.0000   0.0000   0.2973
  16.420   2.1105   0.09072   0.08626  -0.1780  0.1723  1.0000  -4.7098   0.0000   0.0000   0.0000   0.2973
  16.430   2.1098   0.09095   0.08650  -0.1781  0.1721  1.0000  -4.7098   0.0000   0.0000   0.0000   0.2973
  16.440   2.1091   0.09119   0.08675  -0.1781  0.1718  1.0000  -4.7098   0.0000   0.0000   0.0000   0.2973
  16.450   2.1084   0.09143   0.08699  -0.1781  0.1716  1.0000  -4.7098   0.0000   0.0000   0.0000   0.2973
  16.460   2.1077   0.09166   0.08724  -0.1782  0.1714  1.0000  -4.7098   0.0000   0.0000   0.0000   0.2974
  16.470   2.1071   0.09190   0.08748  -0.1782  0.1711  1.0000  -4.7098   0.0000   0.0000   0.0000   0.2974
  16.480   2.1064   0.09213   0.08772  -0.1782  0.1708  1.0000  -4.7098   0.0000   0.0000   0.0000   0.2974
  16.490   2.1057   0.09237   0.08796  -0.1783  0.1706  1.0000  -4.7098   0.0000   0.0000   0.0000   0.2974
  16.500   2.1050   0.09260   0.08821  -0.1783  0.1703  1.0000  -4.7098   0.0000   0.0000   0.0000   0.2974
  16.510   2.1043   0.09284   0.08845  -0.1783  0.1700  1.0000  -4.7097   0.0000   0.0000   0.0000   0.2974
  16.520   2.1036   0.09308   0.08869  -0.1784  0.1697  1.0000  -4.7097   0.0000   0.0000   0.0000   0.2974
  16.530   2.1029   0.09331   0.08893  -0.1784  0.1695  1.0000  -4.7096   0.0000   0.0000   0.0000   0.2975
  16.540   2.1022   0.09355   0.08917  -0.1784  0.1692  1.0000  -4.7095   0.0000   0.0000   0.0000   0.2975
  16.550   2.1015   0.09378   0.08942  -0.1785  0.1689  1.0000  -4.7094   0.0000   0.0000   0.0000   0.2975
  16.560   2.1007   0.09402   0.08966  -0.1785  0.1686  1.0000  -4.7093   0.0000   0.0000   0.0000   0.2975
  16.570   2.1000   0.09426   0.08990  -0.1785  0.1683  1.0000  -4.7092   0.0000   0.0000   0.0000   0.2975
  16.580   2.0993   0.09450   0.09015  -0.1786  0.1680  1.0000  -4.7090   0.0000   0.0000   0.0000   0.2975
  16.590   2.0985   0.09474   0.09039  -0.1786  0.1677  1.0000  -4.7088   0.0000   0.0000   0.0000   0.2976
  16.600   2.0977   0.09498   0.09064  -0.1786  0.1674  1.0000  -4.7085   0.0000   0.0000   0.0000   0.2976
  16.610   2.0970   0.09522   0.09089  -0.1787  0.1671  1.0000  -4.7083   0.0000   0.0000   0.0000   0.2976
  16.620   2.0962   0.09547   0.09114  -0.1787  0.1668  1.0000  -4.7080   0.0000   0.0000   0.0000   0.2976
  16.630   2.0954   0.09571   0.09139  -0.1787  0.1665  1.0000  -4.7077   0.0000   0.0000   0.0000   0.2976
  16.640   2.0946   0.09596   0.09164  -0.1788  0.1662  1.0000  -4.7074   0.0000   0.0000   0.0000   0.2977
  16.650   2.0938   0.09621   0.09190  -0.1788  0.1659  1.0000  -4.7069   0.0000   0.0000   0.0000   0.2977
  16.660   2.0929   0.09648   0.09217  -0.1789  0.1656  1.0000  -4.7062   0.0000   0.0000   0.0000   0.2977
  16.670   2.0919   0.09676   0.09245  -0.1789  0.1653  1.0000  -4.7053   0.0000   0.0000   0.0000   0.2977
  16.680   2.0909   0.09704   0.09274  -0.1790  0.1651  1.0000  -4.7044   0.0000   0.0000   0.0000   0.2978
  16.690   2.0899   0.09733   0.09303  -0.1790  0.1648  1.0000  -4.7033   0.0000   0.0000   0.0000   0.2978
  16.700   2.0889   0.09761   0.09332  -0.1791  0.1645  1.0000  -4.7023   0.0000   0.0000   0.0000   0.2979
  16.710   2.0879   0.09790   0.09361  -0.1791  0.1643  1.0000  -4.7012   0.0000   0.0000   0.0000   0.2979
  16.720   2.0869   0.09819   0.09390  -0.1792  0.1640  1.0000  -4.7002   0.0000   0.0000   0.0000   0.2979
  16.730   2.0859   0.09847   0.09419  -0.1793  0.1637  1.0000  -4.6991   0.0000   0.0000   0.0000   0.2980
  16.740   2.0849   0.09875   0.09448  -0.1793  0.1635  1.0000  -4.6981   0.0000   0.0000   0.0000   0.2980
  16.750   2.0839   0.09903   0.09476  -0.1794  0.1632  1.0000  -4.6972   0.0000   0.0000   0.0000   0.2981
  16.760   2.0829   0.09931   0.09504  -0.1794  0.1629  1.0000  -4.6962   0.0000   0.0000   0.0000   0.2981
  16.770   2.0819   0.09958   0.09532  -0.1795  0.1626  1.0000  -4.6953   0.0000   0.0000   0.0000   0.2981
  16.780   2.0810   0.09986   0.09560  -0.1795  0.1624  1.0000  -4.6944   0.0000   0.0000   0.0000   0.2982
  16.790   2.0800   0.10013   0.09587  -0.1796  0.1621  1.0000  -4.6935   0.0000   0.0000   0.0000   0.2982
  16.800   2.0790   0.10041   0.09615  -0.1796  0.1618  1.0000  -4.6926   0.0000   0.0000   0.0000   0.2982
  16.810   2.0781   0.10068   0.09642  -0.1797  0.1615  1.0000  -4.6917   0.0000   0.0000   0.0000   0.2983


